<net xmlns:xsi="http://www.w3.org/2001/XMLSchema-instance" version="1.20" junctionCornerDetail="2" limitTurnSpeed="8.00" xsi:noNamespaceSchemaLocation="http://sumo.dlr.de/xsd/net_file.xsd">

    <location netOffset="0.00,0.00" convBoundary="0.00,0.00,2000.00,2000.00" origBoundary="0.00,0.00,2000.00,2000.00" projParameter="+proj=tmerc +lat_0=34.0 +lon_0=-118.0 +k=1 +x_0=0 +y_0=0 +datum=WGS84 +units=m +no_defs" projName="tmerc" />

    <type id="grid_street" priority="8" numLanes="3" speed="16.67" width="3.50" />

    <edge id=":N_0_0_0" function="internal">
        <lane id=":N_0_0_0_0" index="0" speed="14.03" length="31.05" width="3.50" shape="-8.75,10.50 -7.55,2.08 -3.94,-3.94 2.08,-7.55 10.50,-8.75" />
        <lane id=":N_0_0_0_1" index="1" speed="12.74" length="25.40" width="3.50" shape="-5.25,10.50 -4.27,3.61 -1.31,-1.31 3.61,-4.27 10.50,-5.25" />
        <lane id=":N_0_0_0_2" index="2" speed="11.30" length="19.76" width="3.50" shape="-1.75,10.50 -0.98,5.14 1.31,1.31 5.14,-0.98 10.50,-1.75" />
    </edge>
    <edge id=":N_0_0_3" function="internal">
        <lane id=":N_0_0_3_0" index="0" speed="4.92" length="2.82" width="3.50" shape="10.50,8.75 9.73,8.86 9.19,9.19 8.86,9.73 8.75,10.50" />
        <lane id=":N_0_0_3_1" index="1" speed="7.66" length="8.47" width="3.50" shape="10.50,5.25 8.20,5.58 6.56,6.56 5.58,8.20 5.25,10.50" />
        <lane id=":N_0_0_3_2" index="2" speed="9.66" length="14.11" width="3.50" shape="10.50,1.75 6.67,2.30 3.94,3.94 2.30,6.67 1.75,10.50" />
    </edge>
    <edge id=":N_0_1_0" function="internal">
        <lane id=":N_0_1_0_0" index="0" speed="7.98" length="9.27" width="3.50" shape="491.25,14.50 490.89,11.98 489.81,10.19 488.02,9.11 485.50,8.75" />
    </edge>
    <edge id=":N_0_1_1" function="internal">
        <lane id=":N_0_1_1_0" index="0" speed="14.20" length="31.85" width="3.50" shape="494.75,14.50 495.98,5.86 499.69,-0.31 505.86,-4.02 514.50,-5.25" />
        <lane id=":N_0_1_1_1" index="1" speed="12.93" length="26.21" width="3.50" shape="498.25,14.50 499.27,7.39 502.31,2.31 507.39,-0.73 514.50,-1.75" />
    </edge>
    <edge id=":N_0_1_3" function="internal">
        <lane id=":N_0_1_3_0" index="0" speed="4.60" length="5.11" width="3.50" shape="498.25,14.50 499.12,13.19 500.00,12.75 500.88,13.19 501.75,14.50" />
    </edge>
    <edge id=":N_0_1_4" function="internal">
        <lane id=":N_0_1_4_0" index="0" speed="7.98" length="9.27" width="3.50" shape="514.50,8.75 511.98,9.11 510.19,10.19 509.11,11.98 508.75,14.50" />
    </edge>
    <edge id=":N_0_1_5" function="internal">
        <lane id=":N_0_1_5_0" index="0" speed="16.67" length="29.00" width="3.50" shape="514.50,8.75 485.50,8.75" />
        <lane id=":N_0_1_5_1" index="1" speed="16.67" length="29.00" width="3.50" shape="514.50,5.25 485.50,5.25" />
        <lane id=":N_0_1_5_2" index="2" speed="16.67" length="29.00" width="3.50" shape="514.50,1.75 485.50,1.75" />
    </edge>
    <edge id=":N_0_1_8" function="internal">
        <lane id=":N_0_1_8_0" index="0" speed="4.60" length="1.58" width="3.50" shape="514.50,1.75 513.19,0.88" />
    </edge>
    <edge id=":N_0_1_15" function="internal">
        <lane id=":N_0_1_15_0" index="0" speed="4.60" length="3.53" width="3.50" shape="513.19,0.88 512.75,0.00 513.19,-0.88 514.50,-1.75" />
    </edge>
    <edge id=":N_0_1_9" function="internal">
        <lane id=":N_0_1_9_0" index="0" speed="16.67" length="29.00" width="3.50" shape="485.50,-8.75 514.50,-8.75" />
        <lane id=":N_0_1_9_1" index="1" speed="16.67" length="29.00" width="3.50" shape="485.50,-5.25 514.50,-5.25" />
        <lane id=":N_0_1_9_2" index="2" speed="16.67" length="29.00" width="3.50" shape="485.50,-1.75 514.50,-1.75" />
    </edge>
    <edge id=":N_0_1_12" function="internal">
        <lane id=":N_0_1_12_0" index="0" speed="13.59" length="7.33" width="3.50" shape="485.50,-1.75 492.78,-0.89" />
        <lane id=":N_0_1_12_1" index="1" speed="12.93" length="6.07" width="3.50" shape="485.50,-1.75 491.51,-0.89" />
    </edge>
    <edge id=":N_0_1_14" function="internal">
        <lane id=":N_0_1_14_0" index="0" speed="4.60" length="1.58" width="3.50" shape="485.50,-1.75 486.81,-0.88" />
    </edge>
    <edge id=":N_0_1_16" function="internal">
        <lane id=":N_0_1_16_0" index="0" speed="13.59" length="21.75" width="3.50" shape="492.78,-0.89 494.14,-0.73 500.31,2.31 504.02,7.39 505.25,14.50" />
        <lane id=":N_0_1_16_1" index="0" speed="12.93" length="20.13" width="3.50" shape="491.51,-0.89 492.61,-0.73 497.69,2.31 500.73,7.39 501.75,14.50" />
    </edge>
    <edge id=":N_0_1_17" function="internal">
        <lane id=":N_0_1_17_0" index="0" speed="4.60" length="3.53" width="3.50" shape="486.81,-0.88 487.25,0.00 486.81,0.88 485.50,1.75" />
    </edge>
    <edge id=":N_0_2_0" function="internal">
        <lane id=":N_0_2_0_0" index="0" speed="7.98" length="9.27" width="3.50" shape="991.25,14.50 990.89,11.98 989.81,10.19 988.02,9.11 985.50,8.75" />
    </edge>
    <edge id=":N_0_2_1" function="internal">
        <lane id=":N_0_2_1_0" index="0" speed="14.20" length="31.85" width="3.50" shape="994.75,14.50 995.98,5.86 999.69,-0.31 1005.86,-4.02 1014.50,-5.25" />
        <lane id=":N_0_2_1_1" index="1" speed="12.93" length="26.21" width="3.50" shape="998.25,14.50 999.27,7.39 1002.31,2.31 1007.39,-0.73 1014.50,-1.75" />
    </edge>
    <edge id=":N_0_2_3" function="internal">
        <lane id=":N_0_2_3_0" index="0" speed="4.60" length="5.11" width="3.50" shape="998.25,14.50 999.12,13.19 1000.00,12.75 1000.88,13.19 1001.75,14.50" />
    </edge>
    <edge id=":N_0_2_4" function="internal">
        <lane id=":N_0_2_4_0" index="0" speed="7.98" length="9.27" width="3.50" shape="1014.50,8.75 1011.98,9.11 1010.19,10.19 1009.11,11.98 1008.75,14.50" />
    </edge>
    <edge id=":N_0_2_5" function="internal">
        <lane id=":N_0_2_5_0" index="0" speed="16.67" length="29.00" width="3.50" shape="1014.50,8.75 985.50,8.75" />
        <lane id=":N_0_2_5_1" index="1" speed="16.67" length="29.00" width="3.50" shape="1014.50,5.25 985.50,5.25" />
        <lane id=":N_0_2_5_2" index="2" speed="16.67" length="29.00" width="3.50" shape="1014.50,1.75 985.50,1.75" />
    </edge>
    <edge id=":N_0_2_8" function="internal">
        <lane id=":N_0_2_8_0" index="0" speed="4.60" length="1.58" width="3.50" shape="1014.50,1.75 1013.19,0.88" />
    </edge>
    <edge id=":N_0_2_15" function="internal">
        <lane id=":N_0_2_15_0" index="0" speed="4.60" length="3.53" width="3.50" shape="1013.19,0.88 1012.75,0.00 1013.19,-0.88 1014.50,-1.75" />
    </edge>
    <edge id=":N_0_2_9" function="internal">
        <lane id=":N_0_2_9_0" index="0" speed="16.67" length="29.00" width="3.50" shape="985.50,-8.75 1014.50,-8.75" />
        <lane id=":N_0_2_9_1" index="1" speed="16.67" length="29.00" width="3.50" shape="985.50,-5.25 1014.50,-5.25" />
        <lane id=":N_0_2_9_2" index="2" speed="16.67" length="29.00" width="3.50" shape="985.50,-1.75 1014.50,-1.75" />
    </edge>
    <edge id=":N_0_2_12" function="internal">
        <lane id=":N_0_2_12_0" index="0" speed="13.59" length="7.33" width="3.50" shape="985.50,-1.75 992.78,-0.89" />
        <lane id=":N_0_2_12_1" index="1" speed="12.93" length="6.07" width="3.50" shape="985.50,-1.75 991.51,-0.89" />
    </edge>
    <edge id=":N_0_2_14" function="internal">
        <lane id=":N_0_2_14_0" index="0" speed="4.60" length="1.58" width="3.50" shape="985.50,-1.75 986.81,-0.88" />
    </edge>
    <edge id=":N_0_2_16" function="internal">
        <lane id=":N_0_2_16_0" index="0" speed="13.59" length="21.75" width="3.50" shape="992.78,-0.89 994.14,-0.73 1000.31,2.31 1004.02,7.39 1005.25,14.50" />
        <lane id=":N_0_2_16_1" index="0" speed="12.93" length="20.13" width="3.50" shape="991.51,-0.89 992.61,-0.73 997.69,2.31 1000.73,7.39 1001.75,14.50" />
    </edge>
    <edge id=":N_0_2_17" function="internal">
        <lane id=":N_0_2_17_0" index="0" speed="4.60" length="3.53" width="3.50" shape="986.81,-0.88 987.25,0.00 986.81,0.88 985.50,1.75" />
    </edge>
    <edge id=":N_0_3_0" function="internal">
        <lane id=":N_0_3_0_0" index="0" speed="7.98" length="9.27" width="3.50" shape="1491.25,14.50 1490.89,11.98 1489.81,10.19 1488.02,9.11 1485.50,8.75" />
    </edge>
    <edge id=":N_0_3_1" function="internal">
        <lane id=":N_0_3_1_0" index="0" speed="14.20" length="31.85" width="3.50" shape="1494.75,14.50 1495.98,5.86 1499.69,-0.31 1505.86,-4.02 1514.50,-5.25" />
        <lane id=":N_0_3_1_1" index="1" speed="12.93" length="26.21" width="3.50" shape="1498.25,14.50 1499.27,7.39 1502.31,2.31 1507.39,-0.73 1514.50,-1.75" />
    </edge>
    <edge id=":N_0_3_3" function="internal">
        <lane id=":N_0_3_3_0" index="0" speed="4.60" length="5.11" width="3.50" shape="1498.25,14.50 1499.12,13.19 1500.00,12.75 1500.88,13.19 1501.75,14.50" />
    </edge>
    <edge id=":N_0_3_4" function="internal">
        <lane id=":N_0_3_4_0" index="0" speed="7.98" length="9.27" width="3.50" shape="1514.50,8.75 1511.98,9.11 1510.19,10.19 1509.11,11.98 1508.75,14.50" />
    </edge>
    <edge id=":N_0_3_5" function="internal">
        <lane id=":N_0_3_5_0" index="0" speed="16.67" length="29.00" width="3.50" shape="1514.50,8.75 1485.50,8.75" />
        <lane id=":N_0_3_5_1" index="1" speed="16.67" length="29.00" width="3.50" shape="1514.50,5.25 1485.50,5.25" />
        <lane id=":N_0_3_5_2" index="2" speed="16.67" length="29.00" width="3.50" shape="1514.50,1.75 1485.50,1.75" />
    </edge>
    <edge id=":N_0_3_8" function="internal">
        <lane id=":N_0_3_8_0" index="0" speed="4.60" length="1.58" width="3.50" shape="1514.50,1.75 1513.19,0.88" />
    </edge>
    <edge id=":N_0_3_15" function="internal">
        <lane id=":N_0_3_15_0" index="0" speed="4.60" length="3.53" width="3.50" shape="1513.19,0.88 1512.75,0.00 1513.19,-0.88 1514.50,-1.75" />
    </edge>
    <edge id=":N_0_3_9" function="internal">
        <lane id=":N_0_3_9_0" index="0" speed="16.67" length="29.00" width="3.50" shape="1485.50,-8.75 1514.50,-8.75" />
        <lane id=":N_0_3_9_1" index="1" speed="16.67" length="29.00" width="3.50" shape="1485.50,-5.25 1514.50,-5.25" />
        <lane id=":N_0_3_9_2" index="2" speed="16.67" length="29.00" width="3.50" shape="1485.50,-1.75 1514.50,-1.75" />
    </edge>
    <edge id=":N_0_3_12" function="internal">
        <lane id=":N_0_3_12_0" index="0" speed="13.59" length="7.33" width="3.50" shape="1485.50,-1.75 1492.78,-0.89" />
        <lane id=":N_0_3_12_1" index="1" speed="12.93" length="6.07" width="3.50" shape="1485.50,-1.75 1491.51,-0.89" />
    </edge>
    <edge id=":N_0_3_14" function="internal">
        <lane id=":N_0_3_14_0" index="0" speed="4.60" length="1.58" width="3.50" shape="1485.50,-1.75 1486.81,-0.88" />
    </edge>
    <edge id=":N_0_3_16" function="internal">
        <lane id=":N_0_3_16_0" index="0" speed="13.59" length="21.75" width="3.50" shape="1492.78,-0.89 1494.14,-0.73 1500.31,2.31 1504.02,7.39 1505.25,14.50" />
        <lane id=":N_0_3_16_1" index="0" speed="12.93" length="20.13" width="3.50" shape="1491.51,-0.89 1492.61,-0.73 1497.69,2.31 1500.73,7.39 1501.75,14.50" />
    </edge>
    <edge id=":N_0_3_17" function="internal">
        <lane id=":N_0_3_17_0" index="0" speed="4.60" length="3.53" width="3.50" shape="1486.81,-0.88 1487.25,0.00 1486.81,0.88 1485.50,1.75" />
    </edge>
    <edge id=":N_0_4_0" function="internal">
        <lane id=":N_0_4_0_0" index="0" speed="4.92" length="2.82" width="3.50" shape="1991.25,10.50 1991.14,9.73 1990.81,9.19 1990.27,8.86 1989.50,8.75" />
        <lane id=":N_0_4_0_1" index="1" speed="7.66" length="8.47" width="3.50" shape="1994.75,10.50 1994.42,8.20 1993.44,6.56 1991.80,5.58 1989.50,5.25" />
        <lane id=":N_0_4_0_2" index="2" speed="9.66" length="14.11" width="3.50" shape="1998.25,10.50 1997.70,6.67 1996.06,3.94 1993.33,2.30 1989.50,1.75" />
    </edge>
    <edge id=":N_0_4_3" function="internal">
        <lane id=":N_0_4_3_0" index="0" speed="14.03" length="31.05" width="3.50" shape="1989.50,-8.75 1997.92,-7.55 2003.94,-3.94 2007.55,2.08 2008.75,10.50" />
        <lane id=":N_0_4_3_1" index="1" speed="12.74" length="25.40" width="3.50" shape="1989.50,-5.25 1996.39,-4.27 2001.31,-1.31 2004.27,3.61 2005.25,10.50" />
        <lane id=":N_0_4_3_2" index="2" speed="11.30" length="19.76" width="3.50" shape="1989.50,-1.75 1994.86,-0.98 1998.69,1.31 2000.98,5.14 2001.75,10.50" />
    </edge>
    <edge id=":N_1_0_0" function="internal">
        <lane id=":N_1_0_0_0" index="0" speed="16.67" length="29.00" width="3.50" shape="-8.75,514.50 -8.75,485.50" />
        <lane id=":N_1_0_0_1" index="1" speed="16.67" length="29.00" width="3.50" shape="-5.25,514.50 -5.25,485.50" />
        <lane id=":N_1_0_0_2" index="2" speed="16.67" length="29.00" width="3.50" shape="-1.75,514.50 -1.75,485.50" />
    </edge>
    <edge id=":N_1_0_3" function="internal">
        <lane id=":N_1_0_3_0" index="0" speed="13.59" length="7.33" width="3.50" shape="-1.75,514.50 -0.89,507.22" />
        <lane id=":N_1_0_3_1" index="1" speed="12.93" length="6.07" width="3.50" shape="-1.75,514.50 -0.89,508.49" />
    </edge>
    <edge id=":N_1_0_5" function="internal">
        <lane id=":N_1_0_5_0" index="0" speed="4.60" length="1.58" width="3.50" shape="-1.75,514.50 -0.88,513.19" />
    </edge>
    <edge id=":N_1_0_15" function="internal">
        <lane id=":N_1_0_15_0" index="0" speed="13.59" length="21.75" width="3.50" shape="-0.89,507.22 -0.73,505.86 2.31,499.69 7.39,495.98 14.50,494.75" />
        <lane id=":N_1_0_15_1" index="0" speed="12.93" length="20.13" width="3.50" shape="-0.89,508.49 -0.73,507.39 2.31,502.31 7.39,499.27 14.50,498.25" />
    </edge>
    <edge id=":N_1_0_16" function="internal">
        <lane id=":N_1_0_16_0" index="0" speed="4.60" length="3.53" width="3.50" shape="-0.88,513.19 0.00,512.75 0.88,513.19 1.75,514.50" />
    </edge>
    <edge id=":N_1_0_6" function="internal">
        <lane id=":N_1_0_6_0" index="0" speed="7.98" length="9.27" width="3.50" shape="14.50,508.75 11.98,509.11 10.19,510.19 9.11,511.98 8.75,514.50" />
    </edge>
    <edge id=":N_1_0_7" function="internal">
        <lane id=":N_1_0_7_0" index="0" speed="14.20" length="31.85" width="3.50" shape="14.50,505.25 5.86,504.02 -0.31,500.31 -4.02,494.14 -5.25,485.50" />
        <lane id=":N_1_0_7_1" index="1" speed="12.93" length="26.21" width="3.50" shape="14.50,501.75 7.39,500.73 2.31,497.69 -0.73,492.61 -1.75,485.50" />
    </edge>
    <edge id=":N_1_0_9" function="internal">
        <lane id=":N_1_0_9_0" index="0" speed="4.60" length="5.11" width="3.50" shape="14.50,501.75 13.19,500.88 12.75,500.00 13.19,499.12 14.50,498.25" />
    </edge>
    <edge id=":N_1_0_10" function="internal">
        <lane id=":N_1_0_10_0" index="0" speed="7.98" length="9.27" width="3.50" shape="8.75,485.50 9.11,488.02 10.19,489.81 11.98,490.89 14.50,491.25" />
    </edge>
    <edge id=":N_1_0_11" function="internal">
        <lane id=":N_1_0_11_0" index="0" speed="16.67" length="29.00" width="3.50" shape="8.75,485.50 8.75,514.50" />
        <lane id=":N_1_0_11_1" index="1" speed="16.67" length="29.00" width="3.50" shape="5.25,485.50 5.25,514.50" />
        <lane id=":N_1_0_11_2" index="2" speed="16.67" length="29.00" width="3.50" shape="1.75,485.50 1.75,514.50" />
    </edge>
    <edge id=":N_1_0_14" function="internal">
        <lane id=":N_1_0_14_0" index="0" speed="4.60" length="1.58" width="3.50" shape="1.75,485.50 0.88,486.81" />
    </edge>
    <edge id=":N_1_0_17" function="internal">
        <lane id=":N_1_0_17_0" index="0" speed="4.60" length="3.53" width="3.50" shape="0.88,486.81 0.00,487.25 -0.88,486.81 -1.75,485.50" />
    </edge>
    <edge id=":N_1_1_0" function="internal">
        <lane id=":N_1_1_0_0" index="0" speed="7.98" length="9.27" width="3.50" shape="491.25,514.50 490.89,511.98 489.81,510.19 488.02,509.11 485.50,508.75" />
    </edge>
    <edge id=":N_1_1_1" function="internal">
        <lane id=":N_1_1_1_0" index="0" speed="16.67" length="29.00" width="3.50" shape="491.25,514.50 491.25,485.50" />
        <lane id=":N_1_1_1_1" index="1" speed="16.67" length="29.00" width="3.50" shape="494.75,514.50 494.75,485.50" />
        <lane id=":N_1_1_1_2" index="2" speed="16.67" length="29.00" width="3.50" shape="498.25,514.50 498.25,485.50" />
    </edge>
    <edge id=":N_1_1_4" function="internal">
        <lane id=":N_1_1_4_0" index="0" speed="12.93" length="6.07" width="3.50" shape="498.25,514.50 499.11,508.49" />
    </edge>
    <edge id=":N_1_1_5" function="internal">
        <lane id=":N_1_1_5_0" index="0" speed="4.60" length="1.58" width="3.50" shape="498.25,514.50 499.12,513.19" />
    </edge>
    <edge id=":N_1_1_24" function="internal">
        <lane id=":N_1_1_24_0" index="0" speed="12.93" length="20.13" width="3.50" shape="499.11,508.49 499.27,507.39 502.31,502.31 507.39,499.27 514.50,498.25" />
    </edge>
    <edge id=":N_1_1_25" function="internal">
        <lane id=":N_1_1_25_0" index="0" speed="4.60" length="3.53" width="3.50" shape="499.12,513.19 500.00,512.75 500.88,513.19 501.75,514.50" />
    </edge>
    <edge id=":N_1_1_6" function="internal">
        <lane id=":N_1_1_6_0" index="0" speed="7.98" length="9.27" width="3.50" shape="514.50,508.75 511.98,509.11 510.19,510.19 509.11,511.98 508.75,514.50" />
    </edge>
    <edge id=":N_1_1_7" function="internal">
        <lane id=":N_1_1_7_0" index="0" speed="16.67" length="29.00" width="3.50" shape="514.50,508.75 485.50,508.75" />
        <lane id=":N_1_1_7_1" index="1" speed="16.67" length="29.00" width="3.50" shape="514.50,505.25 485.50,505.25" />
        <lane id=":N_1_1_7_2" index="2" speed="16.67" length="29.00" width="3.50" shape="514.50,501.75 485.50,501.75" />
    </edge>
    <edge id=":N_1_1_10" function="internal">
        <lane id=":N_1_1_10_0" index="0" speed="12.93" length="26.21" width="3.50" shape="514.50,501.75 507.39,500.73 502.31,497.69 499.27,492.61 498.25,485.50" />
    </edge>
    <edge id=":N_1_1_11" function="internal">
        <lane id=":N_1_1_11_0" index="0" speed="4.60" length="5.11" width="3.50" shape="514.50,501.75 513.19,500.88 512.75,500.00 513.19,499.12 514.50,498.25" />
    </edge>
    <edge id=":N_1_1_12" function="internal">
        <lane id=":N_1_1_12_0" index="0" speed="7.98" length="9.27" width="3.50" shape="508.75,485.50 509.11,488.02 510.19,489.81 511.98,490.89 514.50,491.25" />
    </edge>
    <edge id=":N_1_1_13" function="internal">
        <lane id=":N_1_1_13_0" index="0" speed="16.67" length="29.00" width="3.50" shape="508.75,485.50 508.75,514.50" />
        <lane id=":N_1_1_13_1" index="1" speed="16.67" length="29.00" width="3.50" shape="505.25,485.50 505.25,514.50" />
        <lane id=":N_1_1_13_2" index="2" speed="16.67" length="29.00" width="3.50" shape="501.75,485.50 501.75,514.50" />
    </edge>
    <edge id=":N_1_1_16" function="internal">
        <lane id=":N_1_1_16_0" index="0" speed="12.93" length="6.07" width="3.50" shape="501.75,485.50 500.89,491.51" />
    </edge>
    <edge id=":N_1_1_17" function="internal">
        <lane id=":N_1_1_17_0" index="0" speed="4.60" length="1.58" width="3.50" shape="501.75,485.50 500.88,486.81" />
    </edge>
    <edge id=":N_1_1_26" function="internal">
        <lane id=":N_1_1_26_0" index="0" speed="12.93" length="20.13" width="3.50" shape="500.89,491.51 500.73,492.61 497.69,497.69 492.61,500.73 485.50,501.75" />
    </edge>
    <edge id=":N_1_1_27" function="internal">
        <lane id=":N_1_1_27_0" index="0" speed="4.60" length="3.53" width="3.50" shape="500.88,486.81 500.00,487.25 499.12,486.81 498.25,485.50" />
    </edge>
    <edge id=":N_1_1_18" function="internal">
        <lane id=":N_1_1_18_0" index="0" speed="7.98" length="9.27" width="3.50" shape="485.50,491.25 488.02,490.89 489.81,489.81 490.89,488.02 491.25,485.50" />
    </edge>
    <edge id=":N_1_1_19" function="internal">
        <lane id=":N_1_1_19_0" index="0" speed="16.67" length="29.00" width="3.50" shape="485.50,491.25 514.50,491.25" />
        <lane id=":N_1_1_19_1" index="1" speed="16.67" length="29.00" width="3.50" shape="485.50,494.75 514.50,494.75" />
        <lane id=":N_1_1_19_2" index="2" speed="16.67" length="29.00" width="3.50" shape="485.50,498.25 514.50,498.25" />
    </edge>
    <edge id=":N_1_1_22" function="internal">
        <lane id=":N_1_1_22_0" index="0" speed="12.93" length="26.21" width="3.50" shape="485.50,498.25 492.61,499.27 497.69,502.31 500.73,507.39 501.75,514.50" />
    </edge>
    <edge id=":N_1_1_23" function="internal">
        <lane id=":N_1_1_23_0" index="0" speed="4.60" length="5.11" width="3.50" shape="485.50,498.25 486.81,499.12 487.25,500.00 486.81,500.88 485.50,501.75" />
    </edge>
    <edge id=":N_1_2_0" function="internal">
        <lane id=":N_1_2_0_0" index="0" speed="7.98" length="9.27" width="3.50" shape="991.25,514.50 990.89,511.98 989.81,510.19 988.02,509.11 985.50,508.75" />
    </edge>
    <edge id=":N_1_2_1" function="internal">
        <lane id=":N_1_2_1_0" index="0" speed="16.67" length="29.00" width="3.50" shape="991.25,514.50 991.25,485.50" />
        <lane id=":N_1_2_1_1" index="1" speed="16.67" length="29.00" width="3.50" shape="994.75,514.50 994.75,485.50" />
        <lane id=":N_1_2_1_2" index="2" speed="16.67" length="29.00" width="3.50" shape="998.25,514.50 998.25,485.50" />
    </edge>
    <edge id=":N_1_2_4" function="internal">
        <lane id=":N_1_2_4_0" index="0" speed="12.93" length="6.07" width="3.50" shape="998.25,514.50 999.11,508.49" />
    </edge>
    <edge id=":N_1_2_5" function="internal">
        <lane id=":N_1_2_5_0" index="0" speed="4.60" length="1.58" width="3.50" shape="998.25,514.50 999.12,513.19" />
    </edge>
    <edge id=":N_1_2_24" function="internal">
        <lane id=":N_1_2_24_0" index="0" speed="12.93" length="20.13" width="3.50" shape="999.11,508.49 999.27,507.39 1002.31,502.31 1007.39,499.27 1014.50,498.25" />
    </edge>
    <edge id=":N_1_2_25" function="internal">
        <lane id=":N_1_2_25_0" index="0" speed="4.60" length="3.53" width="3.50" shape="999.12,513.19 1000.00,512.75 1000.88,513.19 1001.75,514.50" />
    </edge>
    <edge id=":N_1_2_6" function="internal">
        <lane id=":N_1_2_6_0" index="0" speed="7.98" length="9.27" width="3.50" shape="1014.50,508.75 1011.98,509.11 1010.19,510.19 1009.11,511.98 1008.75,514.50" />
    </edge>
    <edge id=":N_1_2_7" function="internal">
        <lane id=":N_1_2_7_0" index="0" speed="16.67" length="29.00" width="3.50" shape="1014.50,508.75 985.50,508.75" />
        <lane id=":N_1_2_7_1" index="1" speed="16.67" length="29.00" width="3.50" shape="1014.50,505.25 985.50,505.25" />
        <lane id=":N_1_2_7_2" index="2" speed="16.67" length="29.00" width="3.50" shape="1014.50,501.75 985.50,501.75" />
    </edge>
    <edge id=":N_1_2_10" function="internal">
        <lane id=":N_1_2_10_0" index="0" speed="12.93" length="26.21" width="3.50" shape="1014.50,501.75 1007.39,500.73 1002.31,497.69 999.27,492.61 998.25,485.50" />
    </edge>
    <edge id=":N_1_2_11" function="internal">
        <lane id=":N_1_2_11_0" index="0" speed="4.60" length="5.11" width="3.50" shape="1014.50,501.75 1013.19,500.88 1012.75,500.00 1013.19,499.12 1014.50,498.25" />
    </edge>
    <edge id=":N_1_2_12" function="internal">
        <lane id=":N_1_2_12_0" index="0" speed="7.98" length="9.27" width="3.50" shape="1008.75,485.50 1009.11,488.02 1010.19,489.81 1011.98,490.89 1014.50,491.25" />
    </edge>
    <edge id=":N_1_2_13" function="internal">
        <lane id=":N_1_2_13_0" index="0" speed="16.67" length="29.00" width="3.50" shape="1008.75,485.50 1008.75,514.50" />
        <lane id=":N_1_2_13_1" index="1" speed="16.67" length="29.00" width="3.50" shape="1005.25,485.50 1005.25,514.50" />
        <lane id=":N_1_2_13_2" index="2" speed="16.67" length="29.00" width="3.50" shape="1001.75,485.50 1001.75,514.50" />
    </edge>
    <edge id=":N_1_2_16" function="internal">
        <lane id=":N_1_2_16_0" index="0" speed="12.93" length="6.07" width="3.50" shape="1001.75,485.50 1000.89,491.51" />
    </edge>
    <edge id=":N_1_2_17" function="internal">
        <lane id=":N_1_2_17_0" index="0" speed="4.60" length="1.58" width="3.50" shape="1001.75,485.50 1000.88,486.81" />
    </edge>
    <edge id=":N_1_2_26" function="internal">
        <lane id=":N_1_2_26_0" index="0" speed="12.93" length="20.13" width="3.50" shape="1000.89,491.51 1000.73,492.61 997.69,497.69 992.61,500.73 985.50,501.75" />
    </edge>
    <edge id=":N_1_2_27" function="internal">
        <lane id=":N_1_2_27_0" index="0" speed="4.60" length="3.53" width="3.50" shape="1000.88,486.81 1000.00,487.25 999.12,486.81 998.25,485.50" />
    </edge>
    <edge id=":N_1_2_18" function="internal">
        <lane id=":N_1_2_18_0" index="0" speed="7.98" length="9.27" width="3.50" shape="985.50,491.25 988.02,490.89 989.81,489.81 990.89,488.02 991.25,485.50" />
    </edge>
    <edge id=":N_1_2_19" function="internal">
        <lane id=":N_1_2_19_0" index="0" speed="16.67" length="29.00" width="3.50" shape="985.50,491.25 1014.50,491.25" />
        <lane id=":N_1_2_19_1" index="1" speed="16.67" length="29.00" width="3.50" shape="985.50,494.75 1014.50,494.75" />
        <lane id=":N_1_2_19_2" index="2" speed="16.67" length="29.00" width="3.50" shape="985.50,498.25 1014.50,498.25" />
    </edge>
    <edge id=":N_1_2_22" function="internal">
        <lane id=":N_1_2_22_0" index="0" speed="12.93" length="26.21" width="3.50" shape="985.50,498.25 992.61,499.27 997.69,502.31 1000.73,507.39 1001.75,514.50" />
    </edge>
    <edge id=":N_1_2_23" function="internal">
        <lane id=":N_1_2_23_0" index="0" speed="4.60" length="5.11" width="3.50" shape="985.50,498.25 986.81,499.12 987.25,500.00 986.81,500.88 985.50,501.75" />
    </edge>
    <edge id=":N_1_3_0" function="internal">
        <lane id=":N_1_3_0_0" index="0" speed="7.98" length="9.27" width="3.50" shape="1491.25,514.50 1490.89,511.98 1489.81,510.19 1488.02,509.11 1485.50,508.75" />
    </edge>
    <edge id=":N_1_3_1" function="internal">
        <lane id=":N_1_3_1_0" index="0" speed="16.67" length="29.00" width="3.50" shape="1491.25,514.50 1491.25,485.50" />
        <lane id=":N_1_3_1_1" index="1" speed="16.67" length="29.00" width="3.50" shape="1494.75,514.50 1494.75,485.50" />
        <lane id=":N_1_3_1_2" index="2" speed="16.67" length="29.00" width="3.50" shape="1498.25,514.50 1498.25,485.50" />
    </edge>
    <edge id=":N_1_3_4" function="internal">
        <lane id=":N_1_3_4_0" index="0" speed="12.93" length="6.07" width="3.50" shape="1498.25,514.50 1499.11,508.49" />
    </edge>
    <edge id=":N_1_3_5" function="internal">
        <lane id=":N_1_3_5_0" index="0" speed="4.60" length="1.58" width="3.50" shape="1498.25,514.50 1499.12,513.19" />
    </edge>
    <edge id=":N_1_3_24" function="internal">
        <lane id=":N_1_3_24_0" index="0" speed="12.93" length="20.13" width="3.50" shape="1499.11,508.49 1499.27,507.39 1502.31,502.31 1507.39,499.27 1514.50,498.25" />
    </edge>
    <edge id=":N_1_3_25" function="internal">
        <lane id=":N_1_3_25_0" index="0" speed="4.60" length="3.53" width="3.50" shape="1499.12,513.19 1500.00,512.75 1500.88,513.19 1501.75,514.50" />
    </edge>
    <edge id=":N_1_3_6" function="internal">
        <lane id=":N_1_3_6_0" index="0" speed="7.98" length="9.27" width="3.50" shape="1514.50,508.75 1511.98,509.11 1510.19,510.19 1509.11,511.98 1508.75,514.50" />
    </edge>
    <edge id=":N_1_3_7" function="internal">
        <lane id=":N_1_3_7_0" index="0" speed="16.67" length="29.00" width="3.50" shape="1514.50,508.75 1485.50,508.75" />
        <lane id=":N_1_3_7_1" index="1" speed="16.67" length="29.00" width="3.50" shape="1514.50,505.25 1485.50,505.25" />
        <lane id=":N_1_3_7_2" index="2" speed="16.67" length="29.00" width="3.50" shape="1514.50,501.75 1485.50,501.75" />
    </edge>
    <edge id=":N_1_3_10" function="internal">
        <lane id=":N_1_3_10_0" index="0" speed="12.93" length="26.21" width="3.50" shape="1514.50,501.75 1507.39,500.73 1502.31,497.69 1499.27,492.61 1498.25,485.50" />
    </edge>
    <edge id=":N_1_3_11" function="internal">
        <lane id=":N_1_3_11_0" index="0" speed="4.60" length="5.11" width="3.50" shape="1514.50,501.75 1513.19,500.88 1512.75,500.00 1513.19,499.12 1514.50,498.25" />
    </edge>
    <edge id=":N_1_3_12" function="internal">
        <lane id=":N_1_3_12_0" index="0" speed="7.98" length="9.27" width="3.50" shape="1508.75,485.50 1509.11,488.02 1510.19,489.81 1511.98,490.89 1514.50,491.25" />
    </edge>
    <edge id=":N_1_3_13" function="internal">
        <lane id=":N_1_3_13_0" index="0" speed="16.67" length="29.00" width="3.50" shape="1508.75,485.50 1508.75,514.50" />
        <lane id=":N_1_3_13_1" index="1" speed="16.67" length="29.00" width="3.50" shape="1505.25,485.50 1505.25,514.50" />
        <lane id=":N_1_3_13_2" index="2" speed="16.67" length="29.00" width="3.50" shape="1501.75,485.50 1501.75,514.50" />
    </edge>
    <edge id=":N_1_3_16" function="internal">
        <lane id=":N_1_3_16_0" index="0" speed="12.93" length="6.07" width="3.50" shape="1501.75,485.50 1500.89,491.51" />
    </edge>
    <edge id=":N_1_3_17" function="internal">
        <lane id=":N_1_3_17_0" index="0" speed="4.60" length="1.58" width="3.50" shape="1501.75,485.50 1500.88,486.81" />
    </edge>
    <edge id=":N_1_3_26" function="internal">
        <lane id=":N_1_3_26_0" index="0" speed="12.93" length="20.13" width="3.50" shape="1500.89,491.51 1500.73,492.61 1497.69,497.69 1492.61,500.73 1485.50,501.75" />
    </edge>
    <edge id=":N_1_3_27" function="internal">
        <lane id=":N_1_3_27_0" index="0" speed="4.60" length="3.53" width="3.50" shape="1500.88,486.81 1500.00,487.25 1499.12,486.81 1498.25,485.50" />
    </edge>
    <edge id=":N_1_3_18" function="internal">
        <lane id=":N_1_3_18_0" index="0" speed="7.98" length="9.27" width="3.50" shape="1485.50,491.25 1488.02,490.89 1489.81,489.81 1490.89,488.02 1491.25,485.50" />
    </edge>
    <edge id=":N_1_3_19" function="internal">