<?xml version="1.0" ?>
<routes xmlns:xsi="http://www.w3.org/2001/XMLSchema-instance" xsi:noNamespaceSchemaLocation="http://sumo.dlr.de/xsd/routes_file.xsd">
    <vType id="passenger" maxSpeed="22.2" speedFactor="1.0" speedDev="0.1" length="4.5" minGap="2.0" accel="2.6" decel="4.5" sigma="0.5"/>
    <vType id="truck" maxSpeed="25.0" speedFactor="0.9" speedDev="0.05" length="12.0" minGap="3.0" accel="1.8" decel="4.0" sigma="0.5"/>
    <vType id="bus" maxSpeed="22.2" speedFactor="0.85" speedDev="0.05" length="12.0" minGap="3.0" accel="2.0" decel="4.0" sigma="0.5"/>
    <vType id="rsu_type" maxSpeed="0.1" accel="0.1" decel="0.1" length="1.0" width="1.0" minGap="0.1" sigma="0.0" lcStrategic="0" lcCooperative="0" lcSpeedGain="0" lcKeepRight="0" lcSublane="0" color="0,0,1"/>
    <route id="corridor_row_0" edges="E_H_0_0_E E_H_0_1_E E_H_0_2_E E_H_0_3_W E_H_0_2_W E_H_0_1_W"/>
    <route id="corridor_row_1" edges="E_H_1_0_E E_H_1_1_E E_H_1_2_E E_H_1_3_W E_H_1_2_W E_H_1_1_W"/>
    <route id="corridor_row_2" edges="E_H_2_0_E E_H_2_1_E E_H_2_2_E E_H_2_3_W E_H_2_2_W E_H_2_1_W"/>
    <route id="corridor_row_3" edges="E_H_3_0_E E_H_3_1_E E_H_3_2_E E_H_3_3_W E_H_3_2_W E_H_3_1_W"/>
    <route id="corridor_row_4" edges="E_H_4_0_E E_H_4_1_E E_H_4_2_E E_H_4_3_W E_H_4_2_W E_H_4_1_W"/>
    <route id="corridor_col_0" edges="E_V_0_0_N E_V_1_0_N E_V_2_0_N E_V_3_0_S E_V_2_0_S E_V_1_0_S"/>
    <route id="corridor_col_1" edges="E_V_0_1_N E_V_1_1_N E_V_2_1_N E_V_3_1_S E_V_2_1_S E_V_1_1_S"/>
    <route id="corridor_col_2" edges="E_V_0_2_N E_V_1_2_N E_V_2_2_N E_V_3_2_S E_V_2_2_S E_V_1_2_S"/>
    <route id="corridor_col_3" edges="E_V_0_3_N E_V_1_3_N E_V_2_3_N E_V_3_3_S E_V_2_3_S E_V_1_3_S"/>
    <route id="corridor_col_4" edges="E_V_0_4_N E_V_1_4_N E_V_2_4_N E_V_3_4_S E_V_2_4_S E_V_1_4_S"/>
    <route id="loop_3_1_cw" edges="E_H_3_1_E E_V_3_2_N E_H_4_2_W E_V_4_1_S E_H_3_1_E E_V_3_2_N E_H_4_2_W E_V_4_1_S E_H_3_1_E E_V_3_2_N E_H_4_2_W E_V_4_1_S E_H_3_1_E E_V_3_2_N E_H_4_2_W E_V_4_1_S E_H_3_1_E E_V_3_2_N E_H_4_2_W E_V_4_1_S E_H_3_1_E E_V_3_2_N E_H_4_2_W E_V_4_1_S E_H_3_1_E E_V_3_2_N E_H_4_2_W E_V_4_1_S"/>
    <route id="loop_0_2_ccw" edges="E_V_0_2_N E_H_1_2_E E_V_1_3_S E_H_0_3_W E_V_0_2_N E_H_1_2_E E_V_1_3_S E_H_0_3_W E_V_0_2_N E_H_1_2_E E_V_1_3_S E_H_0_3_W E_V_0_2_N E_H_1_2_E E_V_1_3_S E_H_0_3_W E_V_0_2_N E_H_1_2_E E_V_1_3_S E_H_0_3_W E_V_0_2_N E_H_1_2_E E_V_1_3_S E_H_0_3_W E_V_0_2_N E_H_1_2_E E_V_1_3_S E_H_0_3_W"/>
    <route id="loop_1_1_cw" edges="E_H_1_1_E E_V_1_2_N E_H_2_2_W E_V_2_1_S E_H_1_1_E E_V_1_2_N E_H_2_2_W E_V_2_1_S E_H_1_1_E E_V_1_2_N E_H_2_2_W E_V_2_1_S E_H_1_1_E E_V_1_2_N E_H_2_2_W E_V_2_1_S E_H_1_1_E E_V_1_2_N E_H_2_2_W E_V_2_1_S E_H_1_1_E E_V_1_2_N E_H_2_2_W E_V_2_1_S E_H_1_1_E E_V_1_2_N E_H_2_2_W E_V_2_1_S"/>
    <route id="loop_1_3_ccw" edges="E_V_1_3_N E_H_2_3_E E_V_2_4_S E_H_1_4_W E_V_1_3_N E_H_2_3_E E_V_2_4_S E_H_1_4_W E_V_1_3_N E_H_2_3_E E_V_2_4_S E_H_1_4_W E_V_1_3_N E_H_2_3_E E_V_2_4_S E_H_1_4_W E_V_1_3_N E_H_2_3_E E_V_2_4_S E_H_1_4_W E_V_1_3_N E_H_2_3_E E_V_2_4_S E_H_1_4_W E_V_1_3_N E_H_2_3_E E_V_2_4_S E_H_1_4_W"/>
    <route id="loop_3_0_ccw" edges="E_V_3_0_N E_H_4_0_E E_V_4_1_S E_H_3_1_W E_V_3_0_N E_H_4_0_E E_V_4_1_S E_H_3_1_W E_V_3_0_N E_H_4_0_E E_V_4_1_S E_H_3_1_W E_V_3_0_N E_H_4_0_E E_V_4_1_S E_H_3_1_W E_V_3_0_N E_H_4_0_E E_V_4_1_S E_H_3_1_W E_V_3_0_N E_H_4_0_E E_V_4_1_S E_H_3_1_W E_V_3_0_N E_H_4_0_E E_V_4_1_S E_H_3_1_W"/>
    <route id="loop_1_1_ccw" edges="E_V_1_1_N E_H_2_1_E E_V_2_2_S E_H_1_2_W E_V_1_1_N E_H_2_1_E E_V_2_2_S E_H_1_2_W E_V_1_1_N E_H_2_1_E E_V_2_2_S E_H_1_2_W E_V_1_1_N E_H_2_1_E E_V_2_2_S E_H_1_2_W E_V_1_1_N E_H_2_1_E E_V_2_2_S E_H_1_2_W E_V_1_1_N E_H_2_1_E E_V_2_2_S E_H_1_2_W E_V_1_1_N E_H_2_1_E E_V_2_2_S E_H_1_2_W"/>
    <route id="loop_2_3_cw" edges="E_H_2_3_E E_V_2_4_N E_H_3_4_W E_V_3_3_S E_H_2_3_E E_V_2_4_N E_H_3_4_W E_V_3_3_S E_H_2_3_E E_V_2_4_N E_H_3_4_W E_V_3_3_S E_H_2_3_E E_V_2_4_N E_H_3_4_W E_V_3_3_S E_H_2_3_E E_V_2_4_N E_H_3_4_W E_V_3_3_S E_H_2_3_E E_V_2_4_N E_H_3_4_W E_V_3_3_S E_H_2_3_E E_V_2_4_N E_H_3_4_W E_V_3_3_S"/>
    <route id="loop_0_3_cw" edges="E_H_0_3_E E_V_0_4_N E_H_1_4_W E_V_1_3_S E_H_0_3_E E_V_0_4_N E_H_1_4_W E_V_1_3_S E_H_0_3_E E_V_0_4_N E_H_1_4_W E_V_1_3_S E_H_0_3_E E_V_0_4_N E_H_1_4_W E_V_1_3_S E_H_0_3_E E_V_0_4_N E_H_1_4_W E_V_1_3_S E_H_0_3_E E_V_0_4_N E_H_1_4_W E_V_1_3_S E_H_0_3_E E_V_0_4_N E_H_1_4_W E_V_1_3_S"/>
    <route id="loop_2_1_ccw" edges="E_V_2_1_N E_H_3_1_E E_V_3_2_S E_H_2_2_W E_V_2_1_N E_H_3_1_E E_V_3_2_S E_H_2_2_W E_V_2_1_N E_H_3_1_E E_V_3_2_S E_H_2_2_W E_V_2_1_N E_H_3_1_E E_V_3_2_S E_H_2_2_W E_V_2_1_N E_H_3_1_E E_V_3_2_S E_H_2_2_W E_V_2_1_N E_H_3_1_E E_V_3_2_S E_H_2_2_W E_V_2_1_N E_H_3_1_E E_V_3_2_S E_H_2_2_W"/>
    <route id="loop_1_2_cw" edges="E_H_1_2_E E_V_1_3_N E_H_2_3_W E_V_2_2_S E_H_1_2_E E_V_1_3_N E_H_2_3_W E_V_2_2_S E_H_1_2_E E_V_1_3_N E_H_2_3_W E_V_2_2_S E_H_1_2_E E_V_1_3_N E_H_2_3_W E_V_2_2_S E_H_1_2_E E_V_1_3_N E_H_2_3_W E_V_2_2_S E_H_1_2_E E_V_1_3_N E_H_2_3_W E_V_2_2_S E_H_1_2_E E_V_1_3_N E_H_2_3_W E_V_2_2_S"/>
    <route id="loop_2_0_cw" edges="E_H_2_0_E E_V_2_1_N E_H_3_1_W E_V_3_0_S E_H_2_0_E E_V_2_1_N E_H_3_1_W E_V_3_0_S E_H_2_0_E E_V_2_1_N E_H_3_1_W E_V_3_0_S E_H_2_0_E E_V_2_1_N E_H_3_1_W E_V_3_0_S E_H_2_0_E E_V_2_1_N E_H_3_1_W E_V_3_0_S E_H_2_0_E E_V_2_1_N E_H_3_1_W E_V_3_0_S E_H_2_0_E E_V_2_1_N E_H_3_1_W E_V_3_0_S"/>
    <route id="loop_1_0_ccw" edges="E_V_1_0_N E_H_2_0_E E_V_2_1_S E_H_1_1_W E_V_1_0_N E_H_2_0_E E_V_2_1_S E_H_1_1_W E_V_1_0_N E_H_2_0_E E_V_2_1_S E_H_1_1_W E_V_1_0_N E_H_2_0_E E_V_2_1_S E_H_1_1_W E_V_1_0_N E_H_2_0_E E_V_2_1_S E_H_1_1_W E_V_1_0_N E_H_2_0_E E_V_2_1_S E_H_1_1_W E_V_1_0_N E_H_2_0_E E_V_2_1_S E_H_1_1_W"/>
    <route id="loop_3_2_cw" edges="E_H_3_2_E E_V_3_3_N E_H_4_3_W E_V_4_2_S E_H_3_2_E E_V_3_3_N E_H_4_3_W E_V_4_2_S E_H_3_2_E E_V_3_3_N E_H_4_3_W E_V_4_2_S E_H_3_2_E E_V_3_3_N E_H_4_3_W E_V_4_2_S E_H_3_2_E E_V_3_3_N E_H_4_3_W E_V_4_2_S E_H_3_2_E E_V_3_3_N E_H_4_3_W E_V_4_2_S E_H_3_2_E E_V_3_3_N E_H_4_3_W E_V_4_2_S"/>
    <route id="loop_1_3_cw" edges="E_H_1_3_E E_V_1_4_N E_H_2_4_W E_V_2_3_S E_H_1_3_E E_V_1_4_N E_H_2_4_W E_V_2_3_S E_H_1_3_E E_V_1_4_N E_H_2_4_W E_V_2_3_S E_H_1_3_E E_V_1_4_N E_H_2_4_W E_V_2_3_S E_H_1_3_E E_V_1_4_N E_H_2_4_W E_V_2_3_S E_H_1_3_E E_V_1_4_N E_H_2_4_W E_V_2_3_S E_H_1_3_E E_V_1_4_N E_H_2_4_W E_V_2_3_S"/>
    <route id="loop_3_0_cw" edges="E_H_3_0_E E_V_3_1_N E_H_4_1_W E_V_4_0_S E_H_3_0_E E_V_3_1_N E_H_4_1_W E_V_4_0_S E_H_3_0_E E_V_3_1_N E_H_4_1_W E_V_4_0_S E_H_3_0_E E_V_3_1_N E_H_4_1_W E_V_4_0_S E_H_3_0_E E_V_3_1_N E_H_4_1_W E_V_4_0_S E_H_3_0_E E_V_3_1_N E_H_4_1_W E_V_4_0_S E_H_3_0_E E_V_3_1_N E_H_4_1_W E_V_4_0_S"/>
    <route id="loop_2_2_cw" edges="E_H_2_2_E E_V_2_3_N E_H_3_3_W E_V_3_2_S E_H_2_2_E E_V_2_3_N E_H_3_3_W E_V_3_2_S E_H_2_2_E E_V_2_3_N E_H_3_3_W E_V_3_2_S E_H_2_2_E E_V_2_3_N E_H_3_3_W E_V_3_2_S E_H_2_2_E E_V_2_3_N E_H_3_3_W E_V_3_2_S E_H_2_2_E E_V_2_3_N E_H_3_3_W E_V_3_2_S E_H_2_2_E E_V_2_3_N E_H_3_3_W E_V_3_2_S"/>
    <route id="loop_3_3_cw" edges="E_H_3_3_E E_V_3_4_N E_H_4_4_W E_V_4_3_S E_H_3_3_E E_V_3_4_N E_H_4_4_W E_V_4_3_S E_H_3_3_E E_V_3_4_N E_H_4_4_W E_V_4_3_S E_H_3_3_E E_V_3_4_N E_H_4_4_W E_V_4_3_S E_H_3_3_E E_V_3_4_N E_H_4_4_W E_V_4_3_S E_H_3_3_E E_V_3_4_N E_H_4_4_W E_V_4_3_S E_H_3_3_E E_V_3_4_N E_H_4_4_W E_V_4_3_S"/>
    <route id="loop_0_0_ccw" edges="E_V_0_0_N E_H_1_0_E E_V_1_1_S E_H_0_1_W E_V_0_0_N E_H_1_0_E E_V_1_1_S E_H_0_1_W E_V_0_0_N E_H_1_0_E E_V_1_1_S E_H_0_1_W E_V_0_0_N E_H_1_0_E E_V_1_1_S E_H_0_1_W E_V_0_0_N E_H_1_0_E E_V_1_1_S E_H_0_1_W E_V_0_0_N E_H_1_0_E E_V_1_1_S E_H_0_1_W E_V_0_0_N E_H_1_0_E E_V_1_1_S E_H_0_1_W"/>
    <route id="loop_1_2_ccw" edges="E_V_1_2_N E_H_2_2_E E_V_2_3_S E_H_1_3_W E_V_1_2_N E_H_2_2_E E_V_2_3_S E_H_1_3_W E_V_1_2_N E_H_2_2_E E_V_2_3_S E_H_1_3_W E_V_1_2_N E_H_2_2_E E_V_2_3_S E_H_1_3_W E_V_1_2_N E_H_2_2_E E_V_2_3_S E_H_1_3_W E_V_1_2_N E_H_2_2_E E_V_2_3_S E_H_1_3_W E_V_1_2_N E_H_2_2_E E_V_2_3_S E_H_1_3_W"/>
    <route id="loop_2_1_cw" edges="E_H_2_1_E E_V_2_2_N E_H_3_2_W E_V_3_1_S E_H_2_1_E E_V_2_2_N E_H_3_2_W E_V_3_1_S E_H_2_1_E E_V_2_2_N E_H_3_2_W E_V_3_1_S E_H_2_1_E E_V_2_2_N E_H_3_2_W E_V_3_1_S E_H_2_1_E E_V_2_2_N E_H_3_2_W E_V_3_1_S E_H_2_1_E E_V_2_2_N E_H_3_2_W E_V_3_1_S E_H_2_1_E E_V_2_2_N E_H_3_2_W E_V_3_1_S"/>
    <route id="loop_0_1_cw" edges="E_H_0_1_E E_V_0_2_N E_H_1_2_W E_V_1_1_S E_H_0_1_E E_V_0_2_N E_H_1_2_W E_V_1_1_S E_H_0_1_E E_V_0_2_N E_H_1_2_W E_V_1_1_S E_H_0_1_E E_V_0_2_N E_H_1_2_W E_V_1_1_S E_H_0_1_E E_V_0_2_N E_H_1_2_W E_V_1_1_S E_H_0_1_E E_V_0_2_N E_H_1_2_W E_V_1_1_S E_H_0_1_E E_V_0_2_N E_H_1_2_W E_V_1_1_S"/>
    <route id="loop_2_0_ccw" edges="E_V_2_0_N E_H_3_0_E E_V_3_1_S E_H_2_1_W E_V_2_0_N E_H_3_0_E E_V_3_1_S E_H_2_1_W E_V_2_0_N E_H_3_0_E E_V_3_1_S E_H_2_1_W E_V_2_0_N E_H_3_0_E E_V_3_1_S E_H_2_1_W E_V_2_0_N E_H_3_0_E E_V_3_1_S E_H_2_1_W E_V_2_0_N E_H_3_0_E E_V_3_1_S E_H_2_1_W E_V_2_0_N E_H_3_0_E E_V_3_1_S E_H_2_1_W"/>
    <route id="loop_2_2_ccw" edges="E_V_2_2_N E_H_3_2_E E_V_3_3_S E_H_2_3_W E_V_2_2_N E_H_3_2_E E_V_3_3_S E_H_2_3_W E_V_2_2_N E_H_3_2_E E_V_3_3_S E_H_2_3_W E_V_2_2_N E_H_3_2_E E_V_3_3_S E_H_2_3_W E_V_2_2_N E_H_3_2_E E_V_3_3_S E_H_2_3_W E_V_2_2_N E_H_3_2_E E_V_3_3_S E_H_2_3_W E_V_2_2_N E_H_3_2_E E_V_3_3_S E_H_2_3_W"/>
    <route id="loop_0_1_ccw" edges="E_V_0_1_N E_H_1_1_E E_V_1_2_S E_H_0_2_W E_V_0_1_N E_H_1_1_E E_V_1_2_S E_H_0_2_W E_V_0_1_N E_H_1_1_E E_V_1_2_S E_H_0_2_W E_V_0_1_N E_H_1_1_E E_V_1_2_S E_H_0_2_W E_V_0_1_N E_H_1_1_E E_V_1_2_S E_H_0_2_W E_V_0_1_N E_H_1_1_E E_V_1_2_S E_H_0_2_W E_V_0_1_N E_H_1_1_E E_V_1_2_S E_H_0_2_W"/>
    <route id="loop_3_2_ccw" edges="E_V_3_2_N E_H_4_2_E E_V_4_3_S E_H_3_3_W E_V_3_2_N E_H_4_2_E E_V_4_3_S E_H_3_3_W E_V_3_2_N E_H_4_2_E E_V_4_3_S E_H_3_3_W E_V_3_2_N E_H_4_2_E E_V_4_3_S E_H_3_3_W E_V_3_2_N E_H_4_2_E E_V_4_3_S E_H_3_3_W E_V_3_2_N E_H_4_2_E E_V_4_3_S E_H_3_3_W E_V_3_2_N E_H_4_2_E E_V_4_3_S E_H_3_3_W"/>
    <route id="loop_0_2_cw" edges="E_H_0_2_E E_V_0_3_N E_H_1_3_W E_V_1_2_S E_H_0_2_E E_V_0_3_N E_H_1_3_W E_V_1_2_S E_H_0_2_E E_V_0_3_N E_H_1_3_W E_V_1_2_S E_H_0_2_E E_V_0_3_N E_H_1_3_W E_V_1_2_S E_H_0_2_E E_V_0_3_N E_H_1_3_W E_V_1_2_S E_H_0_2_E E_V_0_3_N E_H_1_3_W E_V_1_2_S E_H_0_2_E E_V_0_3_N E_H_1_3_W E_V_1_2_S"/>
    <route id="loop_3_1_ccw" edges="E_V_3_1_N E_H_4_1_E E_V_4_2_S E_H_3_2_W E_V_3_1_N E_H_4_1_E E_V_4_2_S E_H_3_2_W E_V_3_1_N E_H_4_1_E E_V_4_2_S E_H_3_2_W E_V_3_1_N E_H_4_1_E E_V_4_2_S E_H_3_2_W E_V_3_1_N E_H_4_1_E E_V_4_2_S E_H_3_2_W E_V_3_1_N E_H_4_1_E E_V_4_2_S E_H_3_2_W E_V_3_1_N E_H_4_1_E E_V_4_2_S E_H_3_2_W"/>
    <route id="loop_3_3_ccw" edges="E_V_3_3_N E_H_4_3_E E_V_4_4_S E_H_3_4_W E_V_3_3_N E_H_4_3_E E_V_4_4_S E_H_3_4_W E_V_3_3_N E_H_4_3_E E_V_4_4_S E_H_3_4_W E_V_3_3_N E_H_4_3_E E_V_4_4_S E_H_3_4_W E_V_3_3_N E_H_4_3_E E_V_4_4_S E_H_3_4_W E_V_3_3_N E_H_4_3_E E_V_4_4_S E_H_3_4_W E_V_3_3_N E_H_4_3_E E_V_4_4_S E_H_3_4_W"/>
    <route id="loop_1_0_cw" edges="E_H_1_0_E E_V_1_1_N E_H_2_1_W E_V_2_0_S E_H_1_0_E E_V_1_1_N E_H_2_1_W E_V_2_0_S E_H_1_0_E E_V_1_1_N E_H_2_1_W E_V_2_0_S E_H_1_0_E E_V_1_1_N E_H_2_1_W E_V_2_0_S E_H_1_0_E E_V_1_1_N E_H_2_1_W E_V_2_0_S E_H_1_0_E E_V_1_1_N E_H_2_1_W E_V_2_0_S E_H_1_0_E E_V_1_1_N E_H_2_1_W E_V_2_0_S"/>
    <route id="loop_2_3_ccw" edges="E_V_2_3_N E_H_3_3_E E_V_3_4_S E_H_2_4_W E_V_2_3_N E_H_3_3_E E_V_3_4_S E_H_2_4_W E_V_2_3_N E_H_3_3_E E_V_3_4_S E_H_2_4_W E_V_2_3_N E_H_3_3_E E_V_3_4_S E_H_2_4_W E_V_2_3_N E_H_3_3_E E_V_3_4_S E_H_2_4_W E_V_2_3_N E_H_3_3_E E_V_3_4_S E_H_2_4_W E_V_2_3_N E_H_3_3_E E_V_3_4_S E_H_2_4_W"/>
    <route id="loop_0_0_cw" edges="E_H_0_0_E E_V_0_1_N E_H_1_1_W E_V_1_0_S E_H_0_0_E E_V_0_1_N E_H_1_1_W E_V_1_0_S E_H_0_0_E E_V_0_1_N E_H_1_1_W E_V_1_0_S E_H_0_0_E E_V_0_1_N E_H_1_1_W E_V_1_0_S E_H_0_0_E E_V_0_1_N E_H_1_1_W E_V_1_0_S E_H_0_0_E E_V_0_1_N E_H_1_1_W E_V_1_0_S E_H_0_0_E E_V_0_1_N E_H_1_1_W E_V_1_0_S"/>
    <route id="loop_0_3_ccw" edges="E_V_0_3_N E_H_1_3_E E_V_1_4_S E_H_0_4_W E_V_0_3_N E_H_1_3_E E_V_1_4_S E_H_0_4_W E_V_0_3_N E_H_1_3_E E_V_1_4_S E_H_0_4_W E_V_0_3_N E_H_1_3_E E_V_1_4_S E_H_0_4_W E_V_0_3_N E_H_1_3_E E_V_1_4_S E_H_0_4_W E_V_0_3_N E_H_1_3_E E_V_1_4_S E_H_0_4_W E_V_0_3_N E_H_1_3_E E_V_1_4_S E_H_0_4_W"/>
    <vehicle id="car0" type="passenger" route="corridor_row_4" depart="0.0" color="1,1,0"/>
    <vehicle id="car1" type="truck" route="corridor_col_3" depart="0.3" color="0,1,0"/>
    <vehicle id="car2" type="passenger" route="corridor_col_4" depart="0.5" color="1,1,0"/>
    <vehicle id="car3" type="passenger" route="corridor_col_0" depart="0.8" color="1,1,0"/>
    <vehicle id="car4" type="passenger" route="corridor_col_2" depart="1.0" color="1,1,0"/>
    <vehicle id="car5" type="passenger" route="corridor_row_0" depart="1.3" color="1,1,0"/>
    <vehicle id="car6" type="passenger" route="corridor_row_1" depart="1.5" color="1,1,0"/>
    <vehicle id="car7" type="truck" route="corridor_row_3" depart="1.8" color="0,1,0"/>
    <vehicle id="car8" type="passenger" route="corridor_col_1" depart="2.0" color="1,1,0"/>
    <vehicle id="car9" type="truck" route="corridor_row_2" depart="2.3" color="0,1,0"/>
    <vehicle id="car10" type="passenger" route="loop_0_0_ccw" depart="2.5" color="1,1,0"/>
    <vehicle id="car11" type="passenger" route="loop_2_0_ccw" depart="2.8" color="1,1,0"/>
    <vehicle id="car12" type="truck" route="loop_3_1_cw" depart="3.0" color="0,1,0"/>
    <vehicle id="car13" type="bus" route="loop_1_0_ccw" depart="3.3" color="0,0,1"/>
    <vehicle id="car14" type="passenger" route="loop_3_2_cw" depart="3.5" color="1,1,0"/>
    <vehicle id="car15" type="passenger" route="loop_1_3_cw" depart="3.8" color="1,1,0"/>
    <vehicle id="car16" type="passenger" route="loop_2_3_cw" depart="4.0" color="1,1,0"/>
    <vehicle id="car17" type="passenger" route="loop_1_2_ccw" depart="4.3" color="1,1,0"/>
    <vehicle id="car18" type="passenger" route="loop_0_0_cw" depart="4.5" color="1,1,0"/>
    <vehicle id="car19" type="truck" route="loop_2_1_cw" depart="4.8" color="0,1,0"/>
    <vehicle id="car20" type="passenger" route="loop_1_1_cw" depart="5.0" color="1,1,0"/>
    <vehicle id="car21" type="passenger" route="loop_0_1_ccw" depart="5.3" color="1,1,0"/>
    <vehicle id="car22" type="passenger" route="loop_1_3_ccw" depart="5.5" color="1,1,0"/>
    <vehicle id="car23" type="bus" route="loop_3_0_cw" depart="5.8" color="0,0,1"/>
    <vehicle id="car24" type="passenger" route="loop_3_1_ccw" depart="6.0" color="1,1,0"/>
    <vehicle id="car25" type="passenger" route="loop_2_3_ccw" depart="6.3" color="1,1,0"/>
    <vehicle id="car26" type="truck" route="loop_0_1_cw" depart="6.5" color="0,1,0"/>
    <vehicle id="car27" type="truck" route="loop_1_2_cw" depart="6.8" color="0,1,0"/>
    <vehicle id="car28" type="passenger" route="loop_1_1_ccw" depart="7.0" color="1,1,0"/>
    <vehicle id="car29" type="passenger" route="loop_2_1_ccw" depart="7.3" color="1,1,0"/>
    <vehicle id="car30" type="passenger" route="loop_3_2_ccw" depart="7.5" color="1,1,0"/>
    <vehicle id="car31" type="passenger" route="loop_2_2_ccw" depart="7.8" color="1,1,0"/>
    <vehicle id="car32" type="passenger" route="loop_1_0_cw" depart="8.0" color="1,1,0"/>
    <vehicle id="car33" type="passenger" route="loop_0_3_ccw" depart="8.3" color="1,1,0"/>
    <vehicle id="car34" type="passenger" route="loop_3_3_cw" depart="8.5" color="1,1,0"/>
    <vehicle id="car35" type="passenger" route="loop_3_0_ccw" depart="8.8" color="1,1,0"/>
    <vehicle id="car36" type="passenger" route="loop_2_2_cw" depart="9.0" color="1,1,0"/>
    <vehicle id="car37" type="passenger" route="loop_2_0_cw" depart="9.3" color="1,1,0"/>
    <vehicle id="car38" type="passenger" route="loop_0_2_ccw" depart="9.5" color="1,1,0"/>
    <vehicle id="car39" type="passenger" route="loop_0_2_cw" depart="9.8" color="1,1,0"/>
    <vehicle id="car40" type="passenger" route="loop_0_3_cw" depart="10.0" color="1,1,0"/>
    <vehicle id="car41" type="truck" route="loop_3_3_ccw" depart="10.3" color="0,1,0"/>
    <vehicle id="car42" type="passenger" route="loop_0_0_ccw" depart="10.5" color="1,1,0"/>
    <vehicle id="car43" type="passenger" route="loop_2_0_ccw" depart="10.8" color="1,1,0"/>
    <vehicle id="car44" type="truck" route="loop_3_1_cw" depart="11.0" color="0,1,0"/>
    <vehicle id="car45" type="passenger" route="loop_1_0_ccw" depart="11.3" color="1,1,0"/>
    <vehicle id="car46" type="truck" route="loop_3_2_cw" depart="11.5" color="0,1,0"/>
    <vehicle id="car47" type="passenger" route="loop_1_3_cw" depart="11.8" color="1,1,0"/>
    <vehicle id="car48" type="passenger" route="loop_2_3_cw" depart="12.0" color="1,1,0"/>
    <vehicle id="car49" type="passenger" route="loop_1_2_ccw" depart="12.3" color="1,1,0"/>
    <vehicle id="car50" type="passenger" route="loop_0_0_cw" depart="12.5" color="1,1,0"/>
    <vehicle id="car51" type="passenger" route="loop_2_1_cw" depart="12.8" color="1,1,0"/>
    <vehicle id="car52" type="passenger" route="loop_1_1_cw" depart="13.0" color="1,1,0"/>
    <vehicle id="car53" type="passenger" route="loop_0_1_ccw" depart="13.3" color="1,1,0"/>
    <vehicle id="car54" type="passenger" route="loop_1_3_ccw" depart="13.5" color="1,1,0"/>
    <vehicle id="car55" type="passenger" route="loop_3_0_cw" depart="13.8" color="1,1,0"/>
    <vehicle id="car56" type="bus" route="loop_3_1_ccw" depart="14.0" color="0,0,1"/>
    <vehicle id="car57" type="passenger" route="loop_2_3_ccw" depart="14.3" color="1,1,0"/>
    <vehicle id="car58" type="bus" route="loop_0_1_cw" depart="14.5" color="0,0,1"/>
    <vehicle id="car59" type="passenger" route="loop_1_2_cw" depart="14.8" color="1,1,0"/>
    <vehicle id="car60" type="passenger" route="loop_1_1_ccw" depart="15.0" color="1,1,0"/>
    <vehicle id="car61" type="passenger" route="loop_2_1_ccw" depart="15.3" color="1,1,0"/>
    <vehicle id="car62" type="passenger" route="loop_3_2_ccw" depart="15.5" color="1,1,0"/>
    <vehicle id="car63" type="passenger" route="loop_2_2_ccw" depart="15.8" color="1,1,0"/>
    <vehicle id="car64" type="passenger" route="loop_1_0_cw" depart="16.0" color="1,1,0"/>
    <vehicle id="car65" type="passenger" route="loop_0_3_ccw" depart="16.3" color="1,1,0"/>
    <vehicle id="car66" type="passenger" route="loop_3_3_cw" depart="16.5" color="1,1,0"/>
    <vehicle id="car67" type="truck" route="loop_3_0_ccw" depart="16.8" color="0,1,0"/>
    <vehicle id="car68" type="passenger" route="loop_2_2_cw" depart="17.0" color="1,1,0"/>
    <vehicle id="car69" type="passenger" route="loop_2_0_cw" depart="17.3" color="1,1,0"/>
    <vehicle id="car70" type="passenger" route="loop_0_2_ccw" depart="17.5" color="1,1,0"/>
    <vehicle id="car71" type="passenger" route="loop_0_2_cw" depart="17.8" color="1,1,0"/>
    <vehicle id="car72" type="passenger" route="loop_0_3_cw" depart="18.0" color="1,1,0"/>
    <vehicle id="car73" type="passenger" route="loop_3_3_ccw" depart="18.3" color="1,1,0"/>
    <vehicle id="car74" type="passenger" route="loop_0_0_ccw" depart="18.5" color="1,1,0"/>
    <vehicle id="car75" type="passenger" route="loop_2_0_ccw" depart="18.8" color="1,1,0"/>
    <vehicle id="car76" type="passenger" route="loop_3_1_cw" depart="19.0" color="1,1,0"/>
    <vehicle id="car77" type="passenger" route="loop_1_0_ccw" depart="19.3" color="1,1,0"/>
    <vehicle id="car78" type="passenger" route="loop_3_2_cw" depart="19.5" color="1,1,0"/>
    <vehicle id="car79" type="passenger" route="loop_1_3_cw" depart="19.8" color="1,1,0"/>
    <vehicle id="car80" type="passenger" route="loop_2_3_cw" depart="20.1" color="1,1,0"/>
    <vehicle id="car81" type="passenger" route="loop_1_2_ccw" depart="20.3" color="1,1,0"/>
    <vehicle id="car82" type="passenger" route="loop_0_0_cw" depart="20.6" color="1,1,0"/>
    <vehicle id="car83" type="passenger" route="loop_2_1_cw" depart="20.8" color="1,1,0"/>
    <vehicle id="car84" type="passenger" route="loop_1_1_cw" depart="21.1" color="1,1,0"/>
    <vehicle id="car85" type="passenger" route="loop_0_1_ccw" depart="21.3" color="1,1,0"/>
    <vehicle id="car86" type="passenger" route="loop_1_3_ccw" depart="21.6" color="1,1,0"/>
    <vehicle id="car87" type="passenger" route="loop_3_0_cw" depart="21.8" color="1,1,0"/>
    <vehicle id="car88" type="truck" route="loop_3_1_ccw" depart="22.1" color="0,1,0"/>
    <vehicle id="car89" type="truck" route="loop_2_3_ccw" depart="22.3" color="0,1,0"/>
    <vehicle id="car90" type="truck" route="loop_0_1_cw" depart="22.6" color="0,1,0"/>
    <vehicle id="car91" type="passenger" route="loop_1_2_cw" depart="22.8" color="1,1,0"/>
    <vehicle id="car92" type="passenger" route="loop_1_1_ccw" depart="23.1" color="1,1,0"/>
    <vehicle id="car93" type="passenger" route="loop_2_1_ccw" depart="23.3" color="1,1,0"/>
    <vehicle id="car94" type="truck" route="loop_3_2_ccw" depart="23.6" color="0,1,0"/>
    <vehicle id="car95" type="passenger" route="loop_2_2_ccw" depart="23.8" color="1,1,0"/>
    <vehicle id="car96" type="passenger" route="loop_1_0_cw" depart="24.1" color="1,1,0"/>
    <vehicle id="car97" type="passenger" route="loop_0_3_ccw" depart="24.3" color="1,1,0"/>
    <vehicle id="car98" type="passenger" route="loop_3_3_cw" depart="24.6" color="1,1,0"/>
    <vehicle id="car99" type="passenger" route="loop_3_0_ccw" depart="24.8" color="1,1,0"/>
    <vehicle id="car100" type="truck" route="loop_2_2_cw" depart="25.1" color="0,1,0"/>
    <vehicle id="car101" type="passenger" route="loop_2_0_cw" depart="25.3" color="1,1,0"/>
    <vehicle id="car102" type="passenger" route="loop_0_2_ccw" depart="25.6" color="1,1,0"/>
    <vehicle id="car103" type="passenger" route="loop_0_2_cw" depart="25.8" color="1,1,0"/>
    <vehicle id="car104" type="passenger" route="loop_0_3_cw" depart="26.1" color="1,1,0"/>
    <vehicle id="car105" type="passenger" route="loop_3_3_ccw" depart="26.3" color="1,1,0"/>
    <vehicle id="car106" type="truck" route="loop_0_0_ccw" depart="26.6" color="0,1,0"/>
    <vehicle id="car107" type="passenger" route="loop_2_0_ccw" depart="26.8" color="1,1,0"/>
    <vehicle id="car108" type="passenger" route="loop_3_1_cw" depart="27.1" color="1,1,0"/>
    <vehicle id="car109" type="passenger" route="loop_1_0_ccw" depart="27.3" color="1,1,0"/>
    <vehicle id="car110" type="passenger" route="loop_3_2_cw" depart="27.6" color="1,1,0"/>
    <vehicle id="car111" type="passenger" route="loop_1_3_cw" depart="27.8" color="1,1,0"/>
    <vehicle id="car112" type="passenger" route="loop_2_3_cw" depart="28.1" color="1,1,0"/>
    <vehicle id="car113" type="bus" route="loop_1_2_ccw" depart="28.3" color="0,0,1"/>
    <vehicle id="car114" type="passenger" route="loop_0_0_cw" depart="28.6" color="1,1,0"/>
    <vehicle id="car115" type="passenger" route="loop_2_1_cw" depart="28.8" color="1,1,0"/>
    <vehicle id="car116" type="passenger" route="loop_1_1_cw" depart="29.1" color="1,1,0"/>
    <vehicle id="car117" type="passenger" route="loop_0_1_ccw" depart="29.3" color="1,1,0"/>
    <vehicle id="car118" type="passenger" route="loop_1_3_ccw" depart="29.6" color="1,1,0"/>
    <vehicle id="car119" type="bus" route="loop_3_0_cw" depart="29.8" color="0,0,1"/>
    <vehicle id="car120" type="passenger" route="loop_3_1_ccw" depart="30.1" color="1,1,0"/>
    <vehicle id="car121" type="passenger" route="loop_2_3_ccw" depart="30.3" color="1,1,0"/>
    <vehicle id="car122" type="passenger" route="loop_0_1_cw" depart="30.6" color="1,1,0"/>
    <vehicle id="car123" type="passenger" route="loop_1_2_cw" depart="30.8" color="1,1,0"/>
    <vehicle id="car124" type="truck" route="loop_1_1_ccw" depart="31.1" color="0,1,0"/>
    <vehicle id="car125" type="passenger" route="loop_2_1_ccw" depart="31.3" color="1,1,0"/>
    <vehicle id="car126" type="truck" route="loop_3_2_ccw" depart="31.6" color="0,1,0"/>
    <vehicle id="car127" type="passenger" route="loop_2_2_ccw" depart="31.8" color="1,1,0"/>
    <vehicle id="car128" type="passenger" route="loop_1_0_cw" depart="32.1" color="1,1,0"/>
    <vehicle id="car129" type="passenger" route="loop_0_3_ccw" depart="32.3" color="1,1,0"/>
    <vehicle id="car130" type="passenger" route="loop_3_3_cw" depart="32.6" color="1,1,0"/>
    <vehicle id="car131" type="truck" route="loop_3_0_ccw" depart="32.8" color="0,1,0"/>
    <vehicle id="car132" type="passenger" route="loop_2_2_cw" depart="33.1" color="1,1,0"/>
    <vehicle id="car133" type="passenger" route="loop_2_0_cw" depart="33.3" color="1,1,0"/>
    <vehicle id="car134" type="truck" route="loop_0_2_ccw" depart="33.6" color="0,1,0"/>
    <vehicle id="car135" type="passenger" route="loop_0_2_cw" depart="33.8" color="1,1,0"/>
    <vehicle id="car136" type="truck" route="loop_0_3_cw" depart="34.1" color="0,1,0"/>
    <vehicle id="car137" type="passenger" route="loop_3_3_ccw" depart="34.3" color="1,1,0"/>
    <vehicle id="car138" type="passenger" route="loop_0_0_ccw" depart="34.6" color="1,1,0"/>
    <vehicle id="car139" type="truck" route="loop_2_0_ccw" depart="34.8" color="0,1,0"/>
    <vehicle id="car140" type="passenger" route="loop_3_1_cw" depart="35.1" color="1,1,0"/>
    <vehicle id="car141" type="passenger" route="loop_1_0_ccw" depart="35.3" color="1,1,0"/>
    <vehicle id="car142" type="passenger" route="loop_3_2_cw" depart="35.6" color="1,1,0"/>
    <vehicle id="car143" type="passenger" route="loop_1_3_cw" depart="35.8" color="1,1,0"/>
    <vehicle id="car144" type="passenger" route="loop_2_3_cw" depart="36.1" color="1,1,0"/>
    <vehicle id="car145" type="passenger" route="loop_1_2_ccw" depart="36.3" color="1,1,0"/>
    <vehicle id="car146" type="passenger" route="loop_0_0_cw" depart="36.6" color="1,1,0"/>
    <vehicle id="car147" type="passenger" route="loop_2_1_cw" depart="36.8" color="1,1,0"/>
    <vehicle id="car148" type="passenger" route="loop_1_1_cw" depart="37.1" color="1,1,0"/>
    <vehicle id="car149" type="passenger" route="loop_0_1_ccw" depart="37.3" color="1,1,0"/>
    <vehicle id="car150" type="passenger" route="loop_1_3_ccw" depart="37.6" color="1,1,0"/>
    <vehicle id="car151" type="passenger" route="loop_3_0_cw" depart="37.8" color="1,1,0"/>
    <vehicle id="car152" type="passenger" route="loop_3_1_ccw" depart="38.1" color="1,1,0"/>
    <vehicle id="car153" type="passenger" route="loop_2_3_ccw" depart="38.3" color="1,1,0"/>
    <vehicle id="car154" type="truck" route="loop_0_1_cw" depart="38.6" color="0,1,0"/>
    <vehicle id="car155" type="passenger" route="loop_1_2_cw" depart="38.8" color="1,1,0"/>
    <vehicle id="car156" type="passenger" route="loop_1_1_ccw" depart="39.1" color="1,1,0"/>
    <vehicle id="car157" type="passenger" route="loop_2_1_ccw" depart="39.3" color="1,1,0"/>
    <vehicle id="car158" type="passenger" route="loop_3_2_ccw" depart="39.6" color="1,1,0"/>
    <vehicle id="car159" type="passenger" route="loop_2_2_ccw" depart="39.8" color="1,1,0"/>
    <vehicle id="car160" type="truck" route="loop_1_0_cw" depart="40.1" color="0,1,0"/>
    <vehicle id="car161" type="passenger" route="loop_0_3_ccw" depart="40.4" color="1,1,0"/>
    <vehicle id="car162" type="passenger" route="loop_3_3_cw" depart="40.6" color="1,1,0"/>
    <vehicle id="car163" type="passenger" route="loop_3_0_ccw" depart="40.9" color="1,1,0"/>
    <vehicle id="car164" type="passenger" route="loop_2_2_cw" depart="41.1" color="1,1,0"/>
    <vehicle id="car165" type="truck" route="loop_2_0_cw" depart="41.4" color="0,1,0"/>
    <vehicle id="car166" type="passenger" route="loop_0_2_ccw" depart="41.6" color="1,1,0"/>
    <vehicle id="car167" type="passenger" route="loop_0_2_cw" depart="41.9" color="1,1,0"/>
    <vehicle id="car168" type="passenger" route="loop_0_3_cw" depart="42.1" color="1,1,0"/>
    <vehicle id="car169" type="truck" route="loop_3_3_ccw" depart="42.4" color="0,1,0"/>
    <vehicle id="car170" type="passenger" route="loop_0_0_ccw" depart="42.6" color="1,1,0"/>
    <vehicle id="car171" type="passenger" route="loop_2_0_ccw" depart="42.9" color="1,1,0"/>
    <vehicle id="car172" type="passenger" route="loop_3_1_cw" depart="43.1" color="1,1,0"/>
    <vehicle id="car173" type="passenger" route="loop_1_0_ccw" depart="43.4" color="1,1,0"/>
    <vehicle id="car174" type="passenger" route="loop_3_2_cw" depart="43.6" color="1,1,0"/>
    <vehicle id="car175" type="bus" route="loop_1_3_cw" depart="43.9" color="0,0,1"/>
    <vehicle id="car176" type="truck" route="loop_2_3_cw" depart="44.1" color="0,1,0"/>
    <vehicle id="car177" type="passenger" route="loop_1_2_ccw" depart="44.4" color="1,1,0"/>
    <vehicle id="car178" type="passenger" route="loop_0_0_cw" depart="44.6" color="1,1,0"/>
    <vehicle id="car179" type="passenger" route="loop_2_1_cw" depart="44.9" color="1,1,0"/>
    <vehicle id="car180" type="passenger" route="loop_1_1_cw" depart="45.1" color="1,1,0"/>
    <vehicle id="car181" type="passenger" route="loop_0_1_ccw" depart="45.4" color="1,1,0"/>
    <vehicle id="car182" type="passenger" route="loop_1_3_ccw" depart="45.6" color="1,1,0"/>
    <vehicle id="car183" type="truck" route="loop_3_0_cw" depart="45.9" color="0,1,0"/>
    <vehicle id="car184" type="passenger" route="loop_3_1_ccw" depart="46.1" color="1,1,0"/>
    <vehicle id="car185" type="passenger" route="loop_2_3_ccw" depart="46.4" color="1,1,0"/>
    <vehicle id="car186" type="passenger" route="loop_0_1_cw" depart="46.6" color="1,1,0"/>
    <vehicle id="car187" type="passenger" route="loop_1_2_cw" depart="46.9" color="1,1,0"/>
    <vehicle id="car188" type="bus" route="loop_1_1_ccw" depart="47.1" color="0,0,1"/>
    <vehicle id="car189" type="passenger" route="loop_2_1_ccw" depart="47.4" color="1,1,0"/>
    <vehicle id="car190" type="passenger" route="loop_3_2_ccw" depart="47.6" color="1,1,0"/>
    <vehicle id="car191" type="passenger" route="loop_2_2_ccw" depart="47.9" color="1,1,0"/>
    <vehicle id="car192" type="passenger" route="loop_1_0_cw" depart="48.1" color="1,1,0"/>
    <vehicle id="car193" type="passenger" route="loop_0_3_ccw" depart="48.4" color="1,1,0"/>
    <vehicle id="car194" type="passenger" route="loop_3_3_cw" depart="48.6" color="1,1,0"/>
    <vehicle id="car195" type="passenger" route="loop_3_0_ccw" depart="48.9" color="1,1,0"/>
    <vehicle id="car196" type="passenger" route="loop_2_2_cw" depart="49.1" color="1,1,0"/>