<net xmlns:xsi="http://www.w3.org/2001/XMLSchema-instance" version="1.20" junctionCornerDetail="2" limitTurnSpeed="8.00" xsi:noNamespaceSchemaLocation="http://sumo.dlr.de/xsd/net_file.xsd">

    <location netOffset="0.00,0.00" convBoundary="0.00,0.00,699.00,699.00" origBoundary="0.00,0.00,699.00,699.00" projParameter="+proj=tmerc +lat_0=0.0 +lon_0=0.0 +k=1 +x_0=0 +y_0=0 +datum=WGS84 +units=m +no_defs" projName="tmerc" />

    <type id="grid_street" priority="8" numLanes="3" speed="16.67" width="3.50" />

    <edge id=":N_0_0_0" function="internal">
        <lane id=":N_0_0_0_0" index="0" speed="14.03" length="31.05" width="3.50" shape="-8.75,10.50 -7.55,2.08 -3.94,-3.94 2.08,-7.55 10.50,-8.75" />
        <lane id=":N_0_0_0_1" index="1" speed="12.74" length="25.40" width="3.50" shape="-5.25,10.50 -4.27,3.61 -1.31,-1.31 3.61,-4.27 10.50,-5.25" />
        <lane id=":N_0_0_0_2" index="2" speed="11.30" length="19.76" width="3.50" shape="-1.75,10.50 -0.98,5.14 1.31,1.31 5.14,-0.98 10.50,-1.75" />
    </edge>
    <edge id=":N_0_0_3" function="internal">
        <lane id=":N_0_0_3_0" index="0" speed="4.92" length="2.82" width="3.50" shape="10.50,8.75 9.73,8.86 9.19,9.19 8.86,9.73 8.75,10.50" />
        <lane id=":N_0_0_3_1" index="1" speed="7.66" length="8.47" width="3.50" shape="10.50,5.25 8.20,5.58 6.56,6.56 5.58,8.20 5.25,10.50" />
        <lane id=":N_0_0_3_2" index="2" speed="9.66" length="14.11" width="3.50" shape="10.50,1.75 6.67,2.30 3.94,3.94 2.30,6.67 1.75,10.50" />
    </edge>
    <edge id=":N_0_1_0" function="internal">
        <lane id=":N_0_1_0_0" index="0" speed="7.98" length="9.27" width="3.50" shape="224.25,14.50 223.89,11.98 222.81,10.19 221.02,9.11 218.50,8.75" />
    </edge>
    <edge id=":N_0_1_1" function="internal">
        <lane id=":N_0_1_1_0" index="0" speed="14.20" length="31.85" width="3.50" shape="227.75,14.50 228.98,5.86 232.69,-0.31 238.86,-4.02 247.50,-5.25" />
        <lane id=":N_0_1_1_1" index="1" speed="12.93" length="26.21" width="3.50" shape="231.25,14.50 232.27,7.39 235.31,2.31 240.39,-0.73 247.50,-1.75" />
    </edge>
    <edge id=":N_0_1_3" function="internal">
        <lane id=":N_0_1_3_0" index="0" speed="4.60" length="5.11" width="3.50" shape="231.25,14.50 232.12,13.19 233.00,12.75 233.88,13.19 234.75,14.50" />
    </edge>
    <edge id=":N_0_1_4" function="internal">
        <lane id=":N_0_1_4_0" index="0" speed="7.98" length="9.27" width="3.50" shape="247.50,8.75 244.98,9.11 243.19,10.19 242.11,11.98 241.75,14.50" />
    </edge>
    <edge id=":N_0_1_5" function="internal">
        <lane id=":N_0_1_5_0" index="0" speed="16.67" length="29.00" width="3.50" shape="247.50,8.75 218.50,8.75" />
        <lane id=":N_0_1_5_1" index="1" speed="16.67" length="29.00" width="3.50" shape="247.50,5.25 218.50,5.25" />
        <lane id=":N_0_1_5_2" index="2" speed="16.67" length="29.00" width="3.50" shape="247.50,1.75 218.50,1.75" />
    </edge>
    <edge id=":N_0_1_8" function="internal">
        <lane id=":N_0_1_8_0" index="0" speed="4.60" length="1.58" width="3.50" shape="247.50,1.75 246.19,0.88" />
    </edge>
    <edge id=":N_0_1_15" function="internal">
        <lane id=":N_0_1_15_0" index="0" speed="4.60" length="3.53" width="3.50" shape="246.19,0.88 245.75,0.00 246.19,-0.88 247.50,-1.75" />
    </edge>
    <edge id=":N_0_1_9" function="internal">
        <lane id=":N_0_1_9_0" index="0" speed="16.67" length="29.00" width="3.50" shape="218.50,-8.75 247.50,-8.75" />
        <lane id=":N_0_1_9_1" index="1" speed="16.67" length="29.00" width="3.50" shape="218.50,-5.25 247.50,-5.25" />
        <lane id=":N_0_1_9_2" index="2" speed="16.67" length="29.00" width="3.50" shape="218.50,-1.75 247.50,-1.75" />
    </edge>
    <edge id=":N_0_1_12" function="internal">
        <lane id=":N_0_1_12_0" index="0" speed="13.59" length="7.33" width="3.50" shape="218.50,-1.75 225.78,-0.89" />
        <lane id=":N_0_1_12_1" index="1" speed="12.93" length="6.07" width="3.50" shape="218.50,-1.75 224.51,-0.89" />
    </edge>
    <edge id=":N_0_1_14" function="internal">
        <lane id=":N_0_1_14_0" index="0" speed="4.60" length="1.58" width="3.50" shape="218.50,-1.75 219.81,-0.88" />
    </edge>
    <edge id=":N_0_1_16" function="internal">
        <lane id=":N_0_1_16_0" index="0" speed="13.59" length="21.75" width="3.50" shape="225.78,-0.89 227.14,-0.73 233.31,2.31 237.02,7.39 238.25,14.50" />
        <lane id=":N_0_1_16_1" index="0" speed="12.93" length="20.13" width="3.50" shape="224.51,-0.89 225.61,-0.73 230.69,2.31 233.73,7.39 234.75,14.50" />
    </edge>
    <edge id=":N_0_1_17" function="internal">
        <lane id=":N_0_1_17_0" index="0" speed="4.60" length="3.53" width="3.50" shape="219.81,-0.88 220.25,0.00 219.81,0.88 218.50,1.75" />
    </edge>
    <edge id=":N_0_2_0" function="internal">
        <lane id=":N_0_2_0_0" index="0" speed="7.98" length="9.27" width="3.50" shape="457.25,14.50 456.89,11.98 455.81,10.19 454.02,9.11 451.50,8.75" />
    </edge>
    <edge id=":N_0_2_1" function="internal">
        <lane id=":N_0_2_1_0" index="0" speed="14.20" length="31.85" width="3.50" shape="460.75,14.50 461.98,5.86 465.69,-0.31 471.86,-4.02 480.50,-5.25" />
        <lane id=":N_0_2_1_1" index="1" speed="12.93" length="26.21" width="3.50" shape="464.25,14.50 465.27,7.39 468.31,2.31 473.39,-0.73 480.50,-1.75" />
    </edge>
    <edge id=":N_0_2_3" function="internal">
        <lane id=":N_0_2_3_0" index="0" speed="4.60" length="5.11" width="3.50" shape="464.25,14.50 465.12,13.19 466.00,12.75 466.88,13.19 467.75,14.50" />
    </edge>
    <edge id=":N_0_2_4" function="internal">
        <lane id=":N_0_2_4_0" index="0" speed="7.98" length="9.27" width="3.50" shape="480.50,8.75 477.98,9.11 476.19,10.19 475.11,11.98 474.75,14.50" />
    </edge>
    <edge id=":N_0_2_5" function="internal">
        <lane id=":N_0_2_5_0" index="0" speed="16.67" length="29.00" width="3.50" shape="480.50,8.75 451.50,8.75" />
        <lane id=":N_0_2_5_1" index="1" speed="16.67" length="29.00" width="3.50" shape="480.50,5.25 451.50,5.25" />
        <lane id=":N_0_2_5_2" index="2" speed="16.67" length="29.00" width="3.50" shape="480.50,1.75 451.50,1.75" />
    </edge>
    <edge id=":N_0_2_8" function="internal">
        <lane id=":N_0_2_8_0" index="0" speed="4.60" length="1.58" width="3.50" shape="480.50,1.75 479.19,0.88" />
    </edge>
    <edge id=":N_0_2_15" function="internal">
        <lane id=":N_0_2_15_0" index="0" speed="4.60" length="3.53" width="3.50" shape="479.19,0.88 478.75,0.00 479.19,-0.88 480.50,-1.75" />
    </edge>
    <edge id=":N_0_2_9" function="internal">
        <lane id=":N_0_2_9_0" index="0" speed="16.67" length="29.00" width="3.50" shape="451.50,-8.75 480.50,-8.75" />
        <lane id=":N_0_2_9_1" index="1" speed="16.67" length="29.00" width="3.50" shape="451.50,-5.25 480.50,-5.25" />
        <lane id=":N_0_2_9_2" index="2" speed="16.67" length="29.00" width="3.50" shape="451.50,-1.75 480.50,-1.75" />
    </edge>
    <edge id=":N_0_2_12" function="internal">
        <lane id=":N_0_2_12_0" index="0" speed="13.59" length="7.33" width="3.50" shape="451.50,-1.75 458.78,-0.89" />
        <lane id=":N_0_2_12_1" index="1" speed="12.93" length="6.07" width="3.50" shape="451.50,-1.75 457.51,-0.89" />
    </edge>
    <edge id=":N_0_2_14" function="internal">
        <lane id=":N_0_2_14_0" index="0" speed="4.60" length="1.58" width="3.50" shape="451.50,-1.75 452.81,-0.88" />
    </edge>
    <edge id=":N_0_2_16" function="internal">
        <lane id=":N_0_2_16_0" index="0" speed="13.59" length="21.75" width="3.50" shape="458.78,-0.89 460.14,-0.73 466.31,2.31 470.02,7.39 471.25,14.50" />
        <lane id=":N_0_2_16_1" index="0" speed="12.93" length="20.13" width="3.50" shape="457.51,-0.89 458.61,-0.73 463.69,2.31 466.73,7.39 467.75,14.50" />
    </edge>
    <edge id=":N_0_2_17" function="internal">
        <lane id=":N_0_2_17_0" index="0" speed="4.60" length="3.53" width="3.50" shape="452.81,-0.88 453.25,0.00 452.81,0.88 451.50,1.75" />
    </edge>
    <edge id=":N_0_3_0" function="internal">
        <lane id=":N_0_3_0_0" index="0" speed="4.92" length="2.82" width="3.50" shape="690.25,10.50 690.14,9.73 689.81,9.19 689.27,8.86 688.50,8.75" />
        <lane id=":N_0_3_0_1" index="1" speed="7.66" length="8.47" width="3.50" shape="693.75,10.50 693.42,8.20 692.44,6.56 690.80,5.58 688.50,5.25" />
        <lane id=":N_0_3_0_2" index="2" speed="9.66" length="14.11" width="3.50" shape="697.25,10.50 696.70,6.67 695.06,3.94 692.33,2.30 688.50,1.75" />
    </edge>
    <edge id=":N_0_3_3" function="internal">
        <lane id=":N_0_3_3_0" index="0" speed="14.03" length="31.05" width="3.50" shape="688.50,-8.75 696.92,-7.55 702.94,-3.94 706.55,2.08 707.75,10.50" />
        <lane id=":N_0_3_3_1" index="1" speed="12.74" length="25.40" width="3.50" shape="688.50,-5.25 695.39,-4.27 700.31,-1.31 703.27,3.61 704.25,10.50" />
        <lane id=":N_0_3_3_2" index="2" speed="11.30" length="19.76" width="3.50" shape="688.50,-1.75 693.86,-0.98 697.69,1.31 699.98,5.14 700.75,10.50" />
    </edge>
    <edge id=":N_1_0_0" function="internal">
        <lane id=":N_1_0_0_0" index="0" speed="16.67" length="29.00" width="3.50" shape="-8.75,247.50 -8.75,218.50" />
        <lane id=":N_1_0_0_1" index="1" speed="16.67" length="29.00" width="3.50" shape="-5.25,247.50 -5.25,218.50" />
        <lane id=":N_1_0_0_2" index="2" speed="16.67" length="29.00" width="3.50" shape="-1.75,247.50 -1.75,218.50" />
    </edge>
    <edge id=":N_1_0_3" function="internal">
        <lane id=":N_1_0_3_0" index="0" speed="13.59" length="7.33" width="3.50" shape="-1.75,247.50 -0.89,240.22" />
        <lane id=":N_1_0_3_1" index="1" speed="12.93" length="6.07" width="3.50" shape="-1.75,247.50 -0.89,241.49" />
    </edge>
    <edge id=":N_1_0_5" function="internal">
        <lane id=":N_1_0_5_0" index="0" speed="4.60" length="1.58" width="3.50" shape="-1.75,247.50 -0.88,246.19" />
    </edge>
    <edge id=":N_1_0_15" function="internal">
        <lane id=":N_1_0_15_0" index="0" speed="13.59" length="21.75" width="3.50" shape="-0.89,240.22 -0.73,238.86 2.31,232.69 7.39,228.98 14.50,227.75" />
        <lane id=":N_1_0_15_1" index="0" speed="12.93" length="20.13" width="3.50" shape="-0.89,241.49 -0.73,240.39 2.31,235.31 7.39,232.27 14.50,231.25" />
    </edge>
    <edge id=":N_1_0_16" function="internal">
        <lane id=":N_1_0_16_0" index="0" speed="4.60" length="3.53" width="3.50" shape="-0.88,246.19 0.00,245.75 0.88,246.19 1.75,247.50" />
    </edge>
    <edge id=":N_1_0_6" function="internal">
        <lane id=":N_1_0_6_0" index="0" speed="7.98" length="9.27" width="3.50" shape="14.50,241.75 11.98,242.11 10.19,243.19 9.11,244.98 8.75,247.50" />
    </edge>
    <edge id=":N_1_0_7" function="internal">
        <lane id=":N_1_0_7_0" index="0" speed="14.20" length="31.85" width="3.50" shape="14.50,238.25 5.86,237.02 -0.31,233.31 -4.02,227.14 -5.25,218.50" />
        <lane id=":N_1_0_7_1" index="1" speed="12.93" length="26.21" width="3.50" shape="14.50,234.75 7.39,233.73 2.31,230.69 -0.73,225.61 -1.75,218.50" />
    </edge>
    <edge id=":N_1_0_9" function="internal">
        <lane id=":N_1_0_9_0" index="0" speed="4.60" length="5.11" width="3.50" shape="14.50,234.75 13.19,233.88 12.75,233.00 13.19,232.12 14.50,231.25" />
    </edge>
    <edge id=":N_1_0_10" function="internal">
        <lane id=":N_1_0_10_0" index="0" speed="7.98" length="9.27" width="3.50" shape="8.75,218.50 9.11,221.02 10.19,222.81 11.98,223.89 14.50,224.25" />
    </edge>
    <edge id=":N_1_0_11" function="internal">
        <lane id=":N_1_0_11_0" index="0" speed="16.67" length="29.00" width="3.50" shape="8.75,218.50 8.75,247.50" />
        <lane id=":N_1_0_11_1" index="1" speed="16.67" length="29.00" width="3.50" shape="5.25,218.50 5.25,247.50" />
        <lane id=":N_1_0_11_2" index="2" speed="16.67" length="29.00" width="3.50" shape="1.75,218.50 1.75,247.50" />
    </edge>
    <edge id=":N_1_0_14" function="internal">
        <lane id=":N_1_0_14_0" index="0" speed="4.60" length="1.58" width="3.50" shape="1.75,218.50 0.88,219.81" />
    </edge>
    <edge id=":N_1_0_17" function="internal">
        <lane id=":N_1_0_17_0" index="0" speed="4.60" length="3.53" width="3.50" shape="0.88,219.81 0.00,220.25 -0.88,219.81 -1.75,218.50" />
    </edge>
    <edge id=":N_1_1_0" function="internal">
        <lane id=":N_1_1_0_0" index="0" speed="7.98" length="9.27" width="3.50" shape="224.25,247.50 223.89,244.98 222.81,243.19 221.02,242.11 218.50,241.75" />
    </edge>
    <edge id=":N_1_1_1" function="internal">
        <lane id=":N_1_1_1_0" index="0" speed="16.67" length="29.00" width="3.50" shape="224.25,247.50 224.25,218.50" />
        <lane id=":N_1_1_1_1" index="1" speed="16.67" length="29.00" width="3.50" shape="227.75,247.50 227.75,218.50" />
        <lane id=":N_1_1_1_2" index="2" speed="16.67" length="29.00" width="3.50" shape="231.25,247.50 231.25,218.50" />
    </edge>
    <edge id=":N_1_1_4" function="internal">
        <lane id=":N_1_1_4_0" index="0" speed="12.93" length="6.07" width="3.50" shape="231.25,247.50 232.11,241.49" />
    </edge>
    <edge id=":N_1_1_5" function="internal">
        <lane id=":N_1_1_5_0" index="0" speed="4.60" length="1.58" width="3.50" shape="231.25,247.50 232.12,246.19" />
    </edge>
    <edge id=":N_1_1_24" function="internal">
        <lane id=":N_1_1_24_0" index="0" speed="12.93" length="20.13" width="3.50" shape="232.11,241.49 232.27,240.39 235.31,235.31 240.39,232.27 247.50,231.25" />
    </edge>
    <edge id=":N_1_1_25" function="internal">
        <lane id=":N_1_1_25_0" index="0" speed="4.60" length="3.53" width="3.50" shape="232.12,246.19 233.00,245.75 233.88,246.19 234.75,247.50" />
    </edge>
    <edge id=":N_1_1_6" function="internal">
        <lane id=":N_1_1_6_0" index="0" speed="7.98" length="9.27" width="3.50" shape="247.50,241.75 244.98,242.11 243.19,243.19 242.11,244.98 241.75,247.50" />
    </edge>
    <edge id=":N_1_1_7" function="internal">
        <lane id=":N_1_1_7_0" index="0" speed="16.67" length="29.00" width="3.50" shape="247.50,241.75 218.50,241.75" />
        <lane id=":N_1_1_7_1" index="1" speed="16.67" length="29.00" width="3.50" shape="247.50,238.25 218.50,238.25" />
        <lane id=":N_1_1_7_2" index="2" speed="16.67" length="29.00" width="3.50" shape="247.50,234.75 218.50,234.75" />
    </edge>
    <edge id=":N_1_1_10" function="internal">
        <lane id=":N_1_1_10_0" index="0" speed="12.93" length="26.21" width="3.50" shape="247.50,234.75 240.39,233.73 235.31,230.69 232.27,225.61 231.25,218.50" />
    </edge>
    <edge id=":N_1_1_11" function="internal">
        <lane id=":N_1_1_11_0" index="0" speed="4.60" length="5.11" width="3.50" shape="247.50,234.75 246.19,233.88 245.75,233.00 246.19,232.12 247.50,231.25" />
    </edge>
    <edge id=":N_1_1_12" function="internal">
        <lane id=":N_1_1_12_0" index="0" speed="7.98" length="9.27" width="3.50" shape="241.75,218.50 242.11,221.02 243.19,222.81 244.98,223.89 247.50,224.25" />
    </edge>
    <edge id=":N_1_1_13" function="internal">
        <lane id=":N_1_1_13_0" index="0" speed="16.67" length="29.00" width="3.50" shape="241.75,218.50 241.75,247.50" />
        <lane id=":N_1_1_13_1" index="1" speed="16.67" length="29.00" width="3.50" shape="238.25,218.50 238.25,247.50" />
        <lane id=":N_1_1_13_2" index="2" speed="16.67" length="29.00" width="3.50" shape="234.75,218.50 234.75,247.50" />
    </edge>
    <edge id=":N_1_1_16" function="internal">
        <lane id=":N_1_1_16_0" index="0" speed="12.93" length="6.07" width="3.50" shape="234.75,218.50 233.89,224.51" />
    </edge>
    <edge id=":N_1_1_17" function="internal">
        <lane id=":N_1_1_17_0" index="0" speed="4.60" length="1.58" width="3.50" shape="234.75,218.50 233.88,219.81" />
    </edge>
    <edge id=":N_1_1_26" function="internal">
        <lane id=":N_1_1_26_0" index="0" speed="12.93" length="20.13" width="3.50" shape="233.89,224.51 233.73,225.61 230.69,230.69 225.61,233.73 218.50,234.75" />
    </edge>
    <edge id=":N_1_1_27" function="internal">
        <lane id=":N_1_1_27_0" index="0" speed="4.60" length="3.53" width="3.50" shape="233.88,219.81 233.00,220.25 232.12,219.81 231.25,218.50" />
    </edge>
    <edge id=":N_1_1_18" function="internal">
        <lane id=":N_1_1_18_0" index="0" speed="7.98" length="9.27" width="3.50" shape="218.50,224.25 221.02,223.89 222.81,222.81 223.89,221.02 224.25,218.50" />
    </edge>
    <edge id=":N_1_1_19" function="internal">
        <lane id=":N_1_1_19_0" index="0" speed="16.67" length="29.00" width="3.50" shape="218.50,224.25 247.50,224.25" />
        <lane id=":N_1_1_19_1" index="1" speed="16.67" length="29.00" width="3.50" shape="218.50,227.75 247.50,227.75" />
        <lane id=":N_1_1_19_2" index="2" speed="16.67" length="29.00" width="3.50" shape="218.50,231.25 247.50,231.25" />
    </edge>
    <edge id=":N_1_1_22" function="internal">
        <lane id=":N_1_1_22_0" index="0" speed="12.93" length="26.21" width="3.50" shape="218.50,231.25 225.61,232.27 230.69,235.31 233.73,240.39 234.75,247.50" />
    </edge>
    <edge id=":N_1_1_23" function="internal">
        <lane id=":N_1_1_23_0" index="0" speed="4.60" length="5.11" width="3.50" shape="218.50,231.25 219.81,232.12 220.25,233.00 219.81,233.88 218.50,234.75" />
    </edge>
    <edge id=":N_1_2_0" function="internal">
        <lane id=":N_1_2_0_0" index="0" speed="7.98" length="9.27" width="3.50" shape="457.25,247.50 456.89,244.98 455.81,243.19 454.02,242.11 451.50,241.75" />
    </edge>
    <edge id=":N_1_2_1" function="internal">
        <lane id=":N_1_2_1_0" index="0" speed="16.67" length="29.00" width="3.50" shape="457.25,247.50 457.25,218.50" />
        <lane id=":N_1_2_1_1" index="1" speed="16.67" length="29.00" width="3.50" shape="460.75,247.50 460.75,218.50" />
        <lane id=":N_1_2_1_2" index="2" speed="16.67" length="29.00" width="3.50" shape="464.25,247.50 464.25,218.50" />
    </edge>
    <edge id=":N_1_2_4" function="internal">
        <lane id=":N_1_2_4_0" index="0" speed="12.93" length="6.07" width="3.50" shape="464.25,247.50 465.11,241.49" />
    </edge>
    <edge id=":N_1_2_5" function="internal">
        <lane id=":N_1_2_5_0" index="0" speed="4.60" length="1.58" width="3.50" shape="464.25,247.50 465.12,246.19" />
    </edge>
    <edge id=":N_1_2_24" function="internal">
        <lane id=":N_1_2_24_0" index="0" speed="12.93" length="20.13" width="3.50" shape="465.11,241.49 465.27,240.39 468.31,235.31 473.39,232.27 480.50,231.25" />
    </edge>
    <edge id=":N_1_2_25" function="internal">
        <lane id=":N_1_2_25_0" index="0" speed="4.60" length="3.53" width="3.50" shape="465.12,246.19 466.00,245.75 466.88,246.19 467.75,247.50" />
    </edge>
    <edge id=":N_1_2_6" function="internal">
        <lane id=":N_1_2_6_0" index="0" speed="7.98" length="9.27" width="3.50" shape="480.50,241.75 477.98,242.11 476.19,243.19 475.11,244.98 474.75,247.50" />
    </edge>
    <edge id=":N_1_2_7" function="internal">
        <lane id=":N_1_2_7_0" index="0" speed="16.67" length="29.00" width="3.50" shape="480.50,241.75 451.50,241.75" />
        <lane id=":N_1_2_7_1" index="1" speed="16.67" length="29.00" width="3.50" shape="480.50,238.25 451.50,238.25" />
        <lane id=":N_1_2_7_2" index="2" speed="16.67" length="29.00" width="3.50" shape="480.50,234.75 451.50,234.75" />
    </edge>
    <edge id=":N_1_2_10" function="internal">
        <lane id=":N_1_2_10_0" index="0" speed="12.93" length="26.21" width="3.50" shape="480.50,234.75 473.39,233.73 468.31,230.69 465.27,225.61 464.25,218.50" />
    </edge>
    <edge id=":N_1_2_11" function="internal">
        <lane id=":N_1_2_11_0" index="0" speed="4.60" length="5.11" width="3.50" shape="480.50,234.75 479.19,233.88 478.75,233.00 479.19,232.12 480.50,231.25" />
    </edge>
    <edge id=":N_1_2_12" function="internal">
        <lane id=":N_1_2_12_0" index="0" speed="7.98" length="9.27" width="3.50" shape="474.75,218.50 475.11,221.02 476.19,222.81 477.98,223.89 480.50,224.25" />
    </edge>
    <edge id=":N_1_2_13" function="internal">
        <lane id=":N_1_2_13_0" index="0" speed="16.67" length="29.00" width="3.50" shape="474.75,218.50 474.75,247.50" />
        <lane id=":N_1_2_13_1" index="1" speed="16.67" length="29.00" width="3.50" shape="471.25,218.50 471.25,247.50" />
        <lane id=":N_1_2_13_2" index="2" speed="16.67" length="29.00" width="3.50" shape="467.75,218.50 467.75,247.50" />
    </edge>
    <edge id=":N_1_2_16" function="internal">
        <lane id=":N_1_2_16_0" index="0" speed="12.93" length="6.07" width="3.50" shape="467.75,218.50 466.89,224.51" />
    </edge>
    <edge id=":N_1_2_17" function="internal">
        <lane id=":N_1_2_17_0" index="0" speed="4.60" length="1.58" width="3.50" shape="467.75,218.50 466.88,219.81" />
    </edge>
    <edge id=":N_1_2_26" function="internal">
        <lane id=":N_1_2_26_0" index="0" speed="12.93" length="20.13" width="3.50" shape="466.89,224.51 466.73,225.61 463.69,230.69 458.61,233.73 451.50,234.75" />
    </edge>
    <edge id=":N_1_2_27" function="internal">
        <lane id=":N_1_2_27_0" index="0" speed="4.60" length="3.53" width="3.50" shape="466.88,219.81 466.00,220.25 465.12,219.81 464.25,218.50" />
    </edge>
    <edge id=":N_1_2_18" function="internal">
        <lane id=":N_1_2_18_0" index="0" speed="7.98" length="9.27" width="3.50" shape="451.50,224.25 454.02,223.89 455.81,222.81 456.89,221.02 457.25,218.50" />
    </edge>
    <edge id=":N_1_2_19" function="internal">
        <lane id=":N_1_2_19_0" index="0" speed="16.67" length="29.00" width="3.50" shape="451.50,224.25 480.50,224.25" />
        <lane id=":N_1_2_19_1" index="1" speed="16.67" length="29.00" width="3.50" shape="451.50,227.75 480.50,227.75" />
        <lane id=":N_1_2_19_2" index="2" speed="16.67" length="29.00" width="3.50" shape="451.50,231.25 480.50,231.25" />
    </edge>
    <edge id=":N_1_2_22" function="internal">
        <lane id=":N_1_2_22_0" index="0" speed="12.93" length="26.21" width="3.50" shape="451.50,231.25 458.61,232.27 463.69,235.31 466.73,240.39 467.75,247.50" />
    </edge>
    <edge id=":N_1_2_23" function="internal">
        <lane id=":N_1_2_23_0" index="0" speed="4.60" length="5.11" width="3.50" shape="451.50,231.25 452.81,232.12 453.25,233.00 452.81,233.88 451.50,234.75" />
    </edge>
    <edge id=":N_1_3_0" function="internal">
        <lane id=":N_1_3_0_0" index="0" speed="7.98" length="9.27" width="3.50" shape="690.25,247.50 689.89,244.98 688.81,243.19 687.02,242.11 684.50,241.75" />
    </edge>
    <edge id=":N_1_3_1" function="internal">
        <lane id=":N_1_3_1_0" index="0" speed="16.67" length="29.00" width="3.50" shape="690.25,247.50 690.25,218.50" />
        <lane id=":N_1_3_1_1" index="1" speed="16.67" length="29.00" width="3.50" shape="693.75,247.50 693.75,218.50" />
        <lane id=":N_1_3_1_2" index="2" speed="16.67" length="29.00" width="3.50" shape="697.25,247.50 697.25,218.50" />
    </edge>
    <edge id=":N_1_3_4" function="internal">
        <lane id=":N_1_3_4_0" index="0" speed="4.60" length="1.58" width="3.50" shape="697.25,247.50 698.12,246.19" />
    </edge>
    <edge id=":N_1_3_15" function="internal">
        <lane id=":N_1_3_15_0" index="0" speed="4.60" length="3.53" width="3.50" shape="698.12,246.19 699.00,245.75 699.88,246.19 700.75,247.50" />
    </edge>
    <edge id=":N_1_3_5" function="internal">
        <lane id=":N_1_3_5_0" index="0" speed="16.67" length="29.00" width="3.50" shape="707.75,218.50 707.75,247.50" />
        <lane id=":N_1_3_5_1" index="1" speed="16.67" length="29.00" width="3.50" shape="704.25,218.50 704.25,247.50" />
        <lane id=":N_1_3_5_2" index="2" speed="16.67" length="29.00" width="3.50" shape="700.75,218.50 700.75,247.50" />
    </edge>
    <edge id=":N_1_3_8" function="internal">
        <lane id=":N_1_3_8_0" index="0" speed="13.59" length="7.33" width="3.50" shape="700.75,218.50 699.89,225.78" />
        <lane id=":N_1_3_8_1" index="1" speed="12.93" length="6.07" width="3.50" shape="700.75,218.50 699.89,224.51" />
    </edge>
    <edge id=":N_1_3_10" function="internal">
        <lane id=":N_1_3_10_0" index="0" speed="4.60" length="1.58" width="3.50" shape="700.75,218.50 699.88,219.81" />
    </edge>
    <edge id=":N_1_3_16" function="internal">
        <lane id=":N_1_3_16_0" index="0" speed="13.59" length="21.75" width="3.50" shape="699.89,225.78 699.73,227.14 696.69,233.31 691.61,237.02 684.50,238.25" />
        <lane id=":N_1_3_16_1" index="0" speed="12.93" length="20.13" width="3.50" shape="699.89,224.51 699.73,225.61 696.69,230.69 691.61,233.73 684.50,234.75" />
    </edge>
    <edge id=":N_1_3_17" function="internal">
        <lane id=":N_1_3_17_0" index="0" speed="4.60" length="3.53" width="3.50" shape="699.88,219.81 699.00,220.25 698.12,219.81 697.25,218.50" />
    </edge>
    <edge id=":N_1_3_11" function="internal">
        <lane id=":N_1_3_11_0" index="0" speed="7.98" length="9.27" width="3.50" shape="684.50,224.25 687.02,223.89 688.81,222.81 689.89,221.02 690.25,218.50" />
    </edge>
    <edge id=":N_1_3_12" function="internal">
        <lane id=":N_1_3_12_0" index="0" speed="14.20" length="31.85" width="3.50" shape="684.50,227.75 693.14,228.98 699.31,232.69 703.02,238.86 704.25,247.50" />
        <lane id=":N_1_3_12_1" index="1" speed="12.93" length="26.21" width="3.50" shape="684.50,231.25 691.61,232.27 696.69,235.31 699.73,240.39 700.75,247.50" />
    </edge>
    <edge id=":N_1_3_14" function="internal">
        <lane id=":N_1_3_14_0" index="0" speed="4.60" length="5.11" width="3.50" shape="684.50,231.25 685.81,232.12 686.25,233.00 685.81,233.88 684.50,234.75" />
    </edge>
    <edge id=":N_2_0_0" function="internal">
        <lane id=":N_2_0_0_0" index="0" speed="16.67" length="29.00" width="3.50" shape="-8.75,480.50 -8.75,451.50" />
        <lane id=":N_2_0_0_1" index="1" speed="16.67" length="29.00" width="3.50" shape="-5.25,480.50 -5.25,451.50" />
        <lane id=":N_2_0_0_2" index="2" speed="16.67" length="29.00" width="3.50" shape="-1.75,480.50 -1.75,451.50" />
    </edge>
    <edge id=":N_2_0_3" function="internal">
        <lane id=":N_2_0_3_0" index="0" speed="13.59" length="7.33" width="3.50" shape="-1.75,480.50 -0.89,473.22" />
        <lane id=":N_2_0_3_1" index="1" speed="12.93" length="6.07" width="3.50" shape="-1.75,480.50 -0.89,474.49" />
    </edge>
    <edge id=":N_2_0_5" function="internal">
        <lane id=":N_2_0_5_0" index="0" speed="4.60" length="1.58" width="3.50" shape="-1.75,480.50 -0.88,479.19" />
    </edge>
    <edge id=":N_2_0_15" function="internal">
        <lane id=":N_2_0_15_0" index="0" speed="13.59" length="21.75" width="3.50" shape="-0.89,473.22 -0.73,471.86 2.31,465.69 7.39,461.98 14.50,460.75" />
        <lane id=":N_2_0_15_1" index="0" speed="12.93" length="20.13" width="3.50" shape="-0.89,474.49 -0.73,473.39 2.31,468.31 7.39,465.27 14.50,464.25" />
    </edge>
    <edge id=":N_2_0_16" function="internal">
        <lane id=":N_2_0_16_0" index="0" speed="4.60" length="3.53" width="3.50" shape="-0.88,479.19 0.00,478.75 0.88,479.19 1.75,480.50" />
    </edge>
    <edge id=":N_2_0_6" function="internal">
        <lane id=":N_2_0_6_0" index="0" speed="7.98" length="9.27" width="3.50" shape="14.50,474.75 11.98,475.11 10.19,476.19 9.11,477.98 8.75,480.50" />
    </edge>
    <edge id=":N_2_0_7" function="internal">
        <lane id=":N_2_0_7_0" index="0" speed="14.20" length="31.85" width="3.50" shape="14.50,471.25 5.86,470.02 -0.31,466.31 -4.02,460.14 -5.25,451.50" />
        <lane id=":N_2_0_7_1" index="1" speed="12.93" length="26.21" width="3.50" shape="14.50,467.75 7.39,466.73 2.31,463.69 -0.73,458.61 -1.75,451.50" />
    </edge>
    <edge id=":N_2_0_9" function="internal">
        <lane id=":N_2_0_9_0" index="0" speed="4.60" length="5.11" width="3.50" shape="14.50,467.75 13.19,466.88 12.75,466.00 13.19,465.12 14.50,464.25" />
    </edge>
    <edge id=":N_2_0_10" function="internal">
        <lane id=":N_2_0_10_0" index="0" speed="7.98" length="9.27" width="3.50" shape="8.75,451.50 9.11,454.02 10.19,455.81 11.98,456.89 14.50,457.25" />
    </edge>
    <edge id=":N_2_0_11" function="internal">
        <lane id=":N_2_0_11_0" index="0" speed="16.67" length="29.00" width="3.50" shape="8.75,451.50 8.75,480.50" />
        <lane id=":N_2_0_11_1" index="1" speed="16.67" length="29.00" width="3.50" shape="5.25,451.50 5.25,480.50" />
        <lane id=":N_2_0_11_2" index="2" speed="16.67" length="29.00" width="3.50" shape="1.75,451.50 1.75,480.50" />
    </edge>
    <edge id=":N_2_0_14" function="internal">
        <lane id=":N_2_0_14_0" index="0" speed="4.60" length="1.58" width="3.50" shape="1.75,451.50 0.88,452.81" />
    </edge>
    <edge id=":N_2_0_17" function="internal">
        <lane id=":N_2_0_17_0" index="0" speed="4.60" length="3.53" width="3.50" shape="0.88,452.81 0.00,453.25 -0.88,452.81 -1.75,451.50" />
    </edge>
    <edge id=":N_2_1_0" function="internal">
        <lane id=":N_2_1_0_0" index="0" speed="7.98" length="9.27" width="3.50" shape="224.25,480.50 223.89,477.98 222.81,476.19 221.02,475.11 218.50,474.75" />
    </edge>
    <edge id=":N_2_1_1" function="internal">
        <lane id=":N_2_1_1_0" index="0" speed="16.67" length="29.00" width="3.50" shape="224.25,480.50 224.25,451.50" />
        <lane id=":N_2_1_1_1" index="1" speed="16.67" length="29.00" width="3.50" shape="227.75,480.50 227.75,451.50" />
        <lane id=":N_2_1_1_2" index="2" speed="16.67" length="29.00" width="3.50" shape="231.25,480.50 231.25,451.50" />
    </edge>
    <edge id=":N_2_1_4" function="internal">
        <lane id=":N_2_1_4_0" index="0" speed="12.93" length="6.07" width="3.50" shape="231.25,480.50 232.11,474.49" />
    </edge>
    <edge id=":N_2_1_5" function="internal">
        <lane id=":N_2_1_5_0" index="0" speed="4.60" length="1.58" width="3.50" shape="231.25,480.50 232.12,479.19" />
    </edge>
    <edge id=":N_2_1_24" function="internal">