<?xml version="1.0" ?>
<types xmlns:xsi="http://www.w3.org/2001/XMLSchema-instance" xsi:noNamespaceSchemaLocation="http://sumo.dlr.de/xsd/types_file.xsd">
    <type id="grid_street" priority="8" numLanes="3" speed="16.67" allow="all" width="3.5"/>
</types>