<?xml version="1.0" ?>
<connections xmlns:xsi="http://www.w3.org/2001/XMLSchema-instance" xsi:noNamespaceSchemaLocation="http://sumo.dlr.de/xsd/connections_file.xsd">
    <connection from="E_H_0_1_W" to="E_V_0_0_N" fromLane="0" toLane="0" dir="r"/>
    <connection from="E_V_1_0_S" to="E_H_0_0_E" fromLane="2" toLane="0" dir="l"/>
    <connection from="E_H_0_1_E" to="E_H_0_2_E" fromLane="1" toLane="1" dir="s"/>
    <connection from="E_H_0_1_E" to="E_V_0_1_N" fromLane="2" toLane="0" dir="l"/>
    <connection from="E_H_0_2_W" to="E_H_0_1_W" fromLane="1" toLane="1" dir="s"/>
    <connection from="E_H_0_2_W" to="E_V_0_1_N" fromLane="0" toLane="0" dir="r"/>
    <connection from="E_V_1_1_S" to="E_H_0_1_E" fromLane="2" toLane="0" dir="l"/>
    <connection from="E_V_1_1_S" to="E_H_0_1_W" fromLane="0" toLane="0" dir="r"/>
    <connection from="E_H_0_2_E" to="E_H_0_3_E" fromLane="1" toLane="1" dir="s"/>
    <connection from="E_H_0_2_E" to="E_V_0_2_N" fromLane="2" toLane="0" dir="l"/>
    <connection from="E_H_0_3_W" to="E_H_0_2_W" fromLane="1" toLane="1" dir="s"/>
    <connection from="E_H_0_3_W" to="E_V_0_2_N" fromLane="0" toLane="0" dir="r"/>
    <connection from="E_V_1_2_S" to="E_H_0_2_E" fromLane="2" toLane="0" dir="l"/>
    <connection from="E_V_1_2_S" to="E_H_0_2_W" fromLane="0" toLane="0" dir="r"/>
    <connection from="E_H_0_3_E" to="E_V_0_3_N" fromLane="2" toLane="0" dir="l"/>
    <connection from="E_V_1_3_S" to="E_H_0_3_W" fromLane="0" toLane="0" dir="r"/>
    <connection from="E_H_1_1_W" to="E_V_1_0_S" fromLane="2" toLane="0" dir="l"/>
    <connection from="E_H_1_1_W" to="E_V_1_0_N" fromLane="0" toLane="0" dir="r"/>
    <connection from="E_V_1_0_N" to="E_V_2_0_N" fromLane="1" toLane="1" dir="s"/>
    <connection from="E_V_1_0_N" to="E_H_2_0_E" fromLane="0" toLane="0" dir="r"/>
    <connection from="E_V_2_0_S" to="E_V_1_0_S" fromLane="1" toLane="1" dir="s"/>
    <connection from="E_V_2_0_S" to="E_H_1_0_E" fromLane="2" toLane="0" dir="l"/>
    <connection from="E_H_1_1_E" to="E_H_1_2_E" fromLane="1" toLane="1" dir="s"/>
    <connection from="E_H_1_1_E" to="E_V_1_1_N" fromLane="2" toLane="0" dir="l"/>
    <connection from="E_H_1_1_E" to="E_V_1_1_S" fromLane="0" toLane="0" dir="r"/>
    <connection from="E_H_1_2_W" to="E_H_1_1_W" fromLane="1" toLane="1" dir="s"/>
    <connection from="E_H_1_2_W" to="E_V_1_1_S" fromLane="2" toLane="0" dir="l"/>
    <connection from="E_H_1_2_W" to="E_V_1_1_N" fromLane="0" toLane="0" dir="r"/>
    <connection from="E_V_1_1_N" to="E_V_2_1_N" fromLane="1" toLane="1" dir="s"/>
    <connection from="E_V_1_1_N" to="E_H_2_1_W" fromLane="2" toLane="0" dir="l"/>
    <connection from="E_V_1_1_N" to="E_H_2_1_E" fromLane="0" toLane="0" dir="r"/>
    <connection from="E_V_2_1_S" to="E_V_1_1_S" fromLane="1" toLane="1" dir="s"/>
    <connection from="E_V_2_1_S" to="E_H_1_1_E" fromLane="2" toLane="0" dir="l"/>
    <connection from="E_V_2_1_S" to="E_H_1_1_W" fromLane="0" toLane="0" dir="r"/>
    <connection from="E_H_1_2_E" to="E_H_1_3_E" fromLane="1" toLane="1" dir="s"/>
    <connection from="E_H_1_2_E" to="E_V_1_2_N" fromLane="2" toLane="0" dir="l"/>
    <connection from="E_H_1_2_E" to="E_V_1_2_S" fromLane="0" toLane="0" dir="r"/>
    <connection from="E_H_1_3_W" to="E_H_1_2_W" fromLane="1" toLane="1" dir="s"/>
    <connection from="E_H_1_3_W" to="E_V_1_2_S" fromLane="2" toLane="0" dir="l"/>
    <connection from="E_H_1_3_W" to="E_V_1_2_N" fromLane="0" toLane="0" dir="r"/>
    <connection from="E_V_1_2_N" to="E_V_2_2_N" fromLane="1" toLane="1" dir="s"/>
    <connection from="E_V_1_2_N" to="E_H_2_2_W" fromLane="2" toLane="0" dir="l"/>
    <connection from="E_V_1_2_N" to="E_H_2_2_E" fromLane="0" toLane="0" dir="r"/>
    <connection from="E_V_2_2_S" to="E_V_1_2_S" fromLane="1" toLane="1" dir="s"/>
    <connection from="E_V_2_2_S" to="E_H_1_2_E" fromLane="2" toLane="0" dir="l"/>
    <connection from="E_V_2_2_S" to="E_H_1_2_W" fromLane="0" toLane="0" dir="r"/>
    <connection from="E_H_1_3_E" to="E_V_1_3_N" fromLane="2" toLane="0" dir="l"/>
    <connection from="E_H_1_3_E" to="E_V_1_3_S" fromLane="0" toLane="0" dir="r"/>
    <connection from="E_V_1_3_N" to="E_V_2_3_N" fromLane="1" toLane="1" dir="s"/>
    <connection from="E_V_1_3_N" to="E_H_2_3_W" fromLane="2" toLane="0" dir="l"/>
    <connection from="E_V_2_3_S" to="E_V_1_3_S" fromLane="1" toLane="1" dir="s"/>
    <connection from="E_V_2_3_S" to="E_H_1_3_W" fromLane="0" toLane="0" dir="r"/>
    <connection from="E_H_2_1_W" to="E_V_2_0_S" fromLane="2" toLane="0" dir="l"/>
    <connection from="E_H_2_1_W" to="E_V_2_0_N" fromLane="0" toLane="0" dir="r"/>
    <connection from="E_V_2_0_N" to="E_V_3_0_N" fromLane="1" toLane="1" dir="s"/>
    <connection from="E_V_2_0_N" to="E_H_3_0_E" fromLane="0" toLane="0" dir="r"/>
    <connection from="E_V_3_0_S" to="E_V_2_0_S" fromLane="1" toLane="1" dir="s"/>
    <connection from="E_V_3_0_S" to="E_H_2_0_E" fromLane="2" toLane="0" dir="l"/>
    <connection from="E_H_2_1_E" to="E_H_2_2_E" fromLane="1" toLane="1" dir="s"/>
    <connection from="E_H_2_1_E" to="E_V_2_1_N" fromLane="2" toLane="0" dir="l"/>
    <connection from="E_H_2_1_E" to="E_V_2_1_S" fromLane="0" toLane="0" dir="r"/>
    <connection from="E_H_2_2_W" to="E_H_2_1_W" fromLane="1" toLane="1" dir="s"/>
    <connection from="E_H_2_2_W" to="E_V_2_1_S" fromLane="2" toLane="0" dir="l"/>
    <connection from="E_H_2_2_W" to="E_V_2_1_N" fromLane="0" toLane="0" dir="r"/>
    <connection from="E_V_2_1_N" to="E_V_3_1_N" fromLane="1" toLane="1" dir="s"/>
    <connection from="E_V_2_1_N" to="E_H_3_1_W" fromLane="2" toLane="0" dir="l"/>
    <connection from="E_V_2_1_N" to="E_H_3_1_E" fromLane="0" toLane="0" dir="r"/>
    <connection from="E_V_3_1_S" to="E_V_2_1_S" fromLane="1" toLane="1" dir="s"/>
    <connection from="E_V_3_1_S" to="E_H_2_1_E" fromLane="2" toLane="0" dir="l"/>
    <connection from="E_V_3_1_S" to="E_H_2_1_W" fromLane="0" toLane="0" dir="r"/>
    <connection from="E_H_2_2_E" to="E_H_2_3_E" fromLane="1" toLane="1" dir="s"/>
    <connection from="E_H_2_2_E" to="E_V_2_2_N" fromLane="2" toLane="0" dir="l"/>
    <connection from="E_H_2_2_E" to="E_V_2_2_S" fromLane="0" toLane="0" dir="r"/>
    <connection from="E_H_2_3_W" to="E_H_2_2_W" fromLane="1" toLane="1" dir="s"/>
    <connection from="E_H_2_3_W" to="E_V_2_2_S" fromLane="2" toLane="0" dir="l"/>
    <connection from="E_H_2_3_W" to="E_V_2_2_N" fromLane="0" toLane="0" dir="r"/>
    <connection from="E_V_2_2_N" to="E_V_3_2_N" fromLane="1" toLane="1" dir="s"/>
    <connection from="E_V_2_2_N" to="E_H_3_2_W" fromLane="2" toLane="0" dir="l"/>
    <connection from="E_V_2_2_N" to="E_H_3_2_E" fromLane="0" toLane="0" dir="r"/>
    <connection from="E_V_3_2_S" to="E_V_2_2_S" fromLane="1" toLane="1" dir="s"/>
    <connection from="E_V_3_2_S" to="E_H_2_2_E" fromLane="2" toLane="0" dir="l"/>
    <connection from="E_V_3_2_S" to="E_H_2_2_W" fromLane="0" toLane="0" dir="r"/>
    <connection from="E_H_2_3_E" to="E_V_2_3_N" fromLane="2" toLane="0" dir="l"/>
    <connection from="E_H_2_3_E" to="E_V_2_3_S" fromLane="0" toLane="0" dir="r"/>
    <connection from="E_V_2_3_N" to="E_V_3_3_N" fromLane="1" toLane="1" dir="s"/>
    <connection from="E_V_2_3_N" to="E_H_3_3_W" fromLane="2" toLane="0" dir="l"/>
    <connection from="E_V_3_3_S" to="E_V_2_3_S" fromLane="1" toLane="1" dir="s"/>
    <connection from="E_V_3_3_S" to="E_H_2_3_W" fromLane="0" toLane="0" dir="r"/>
    <connection from="E_H_3_1_W" to="E_V_3_0_S" fromLane="2" toLane="0" dir="l"/>
    <connection from="E_V_3_0_N" to="E_H_4_0_E" fromLane="0" toLane="0" dir="r"/>
    <connection from="E_H_3_1_E" to="E_H_3_2_E" fromLane="1" toLane="1" dir="s"/>
    <connection from="E_H_3_1_E" to="E_V_3_1_S" fromLane="0" toLane="0" dir="r"/>
    <connection from="E_H_3_2_W" to="E_H_3_1_W" fromLane="1" toLane="1" dir="s"/>
    <connection from="E_H_3_2_W" to="E_V_3_1_S" fromLane="2" toLane="0" dir="l"/>
    <connection from="E_V_3_1_N" to="E_H_4_1_W" fromLane="2" toLane="0" dir="l"/>
    <connection from="E_V_3_1_N" to="E_H_4_1_E" fromLane="0" toLane="0" dir="r"/>
    <connection from="E_H_3_2_E" to="E_H_3_3_E" fromLane="1" toLane="1" dir="s"/>
    <connection from="E_H_3_2_E" to="E_V_3_2_S" fromLane="0" toLane="0" dir="r"/>
    <connection from="E_H_3_3_W" to="E_H_3_2_W" fromLane="1" toLane="1" dir="s"/>
    <connection from="E_H_3_3_W" to="E_V_3_2_S" fromLane="2" toLane="0" dir="l"/>
    <connection from="E_V_3_2_N" to="E_H_4_2_W" fromLane="2" toLane="0" dir="l"/>
    <connection from="E_V_3_2_N" to="E_H_4_2_E" fromLane="0" toLane="0" dir="r"/>
    <connection from="E_H_3_3_E" to="E_V_3_3_S" fromLane="0" toLane="0" dir="r"/>
    <connection from="E_V_3_3_N" to="E_H_4_3_W" fromLane="2" toLane="0" dir="l"/>
</connections>