<?xml version="1.0" ?>
<edges xmlns:xsi="http://www.w3.org/2001/XMLSchema-instance" xsi:noNamespaceSchemaLocation="http://sumo.dlr.de/xsd/edges_file.xsd">
    <edge id="E_H_0_0_E" from="N_0_0" to="N_0_1" type="grid_street"/>
    <edge id="E_H_0_1_W" from="N_0_1" to="N_0_0" type="grid_street"/>
    <edge id="E_H_0_1_E" from="N_0_1" to="N_0_2" type="grid_street"/>
    <edge id="E_H_0_2_W" from="N_0_2" to="N_0_1" type="grid_street"/>
    <edge id="E_H_0_2_E" from="N_0_2" to="N_0_3" type="grid_street"/>
    <edge id="E_H_0_3_W" from="N_0_3" to="N_0_2" type="grid_street"/>
    <edge id="E_H_1_0_E" from="N_1_0" to="N_1_1" type="grid_street"/>
    <edge id="E_H_1_1_W" from="N_1_1" to="N_1_0" type="grid_street"/>
    <edge id="E_H_1_1_E" from="N_1_1" to="N_1_2" type="grid_street"/>
    <edge id="E_H_1_2_W" from="N_1_2" to="N_1_1" type="grid_street"/>
    <edge id="E_H_1_2_E" from="N_1_2" to="N_1_3" type="grid_street"/>
    <edge id="E_H_1_3_W" from="N_1_3" to="N_1_2" type="grid_street"/>
    <edge id="E_H_2_0_E" from="N_2_0" to="N_2_1" type="grid_street"/>
    <edge id="E_H_2_1_W" from="N_2_1" to="N_2_0" type="grid_street"/>
    <edge id="E_H_2_1_E" from="N_2_1" to="N_2_2" type="grid_street"/>
    <edge id="E_H_2_2_W" from="N_2_2" to="N_2_1" type="grid_street"/>
    <edge id="E_H_2_2_E" from="N_2_2" to="N_2_3" type="grid_street"/>
    <edge id="E_H_2_3_W" from="N_2_3" to="N_2_2" type="grid_street"/>
    <edge id="E_H_3_0_E" from="N_3_0" to="N_3_1" type="grid_street"/>
    <edge id="E_H_3_1_W" from="N_3_1" to="N_3_0" type="grid_street"/>
    <edge id="E_H_3_1_E" from="N_3_1" to="N_3_2" type="grid_street"/>
    <edge id="E_H_3_2_W" from="N_3_2" to="N_3_1" type="grid_street"/>
    <edge id="E_H_3_2_E" from="N_3_2" to="N_3_3" type="grid_street"/>
    <edge id="E_H_3_3_W" from="N_3_3" to="N_3_2" type="grid_street"/>
    <edge id="E_V_0_0_N" from="N_0_0" to="N_1_0" type="grid_street"/>
    <edge id="E_V_1_0_S" from="N_1_0" to="N_0_0" type="grid_street"/>
    <edge id="E_V_1_0_N" from="N_1_0" to="N_2_0" type="grid_street"/>
    <edge id="E_V_2_0_S" from="N_2_0" to="N_1_0" type="grid_street"/>
    <edge id="E_V_2_0_N" from="N_2_0" to="N_3_0" type="grid_street"/>
    <edge id="E_V_3_0_S" from="N_3_0" to="N_2_0" type="grid_street"/>
    <edge id="E_V_0_1_N" from="N_0_1" to="N_1_1" type="grid_street"/>
    <edge id="E_V_1_1_S" from="N_1_1" to="N_0_1" type="grid_street"/>
    <edge id="E_V_1_1_N" from="N_1_1" to="N_2_1" type="grid_street"/>
    <edge id="E_V_2_1_S" from="N_2_1" to="N_1_1" type="grid_street"/>
    <edge id="E_V_2_1_N" from="N_2_1" to="N_3_1" type="grid_street"/>
    <edge id="E_V_3_1_S" from="N_3_1" to="N_2_1" type="grid_street"/>
    <edge id="E_V_0_2_N" from="N_0_2" to="N_1_2" type="grid_street"/>
    <edge id="E_V_1_2_S" from="N_1_2" to="N_0_2" type="grid_street"/>
    <edge id="E_V_1_2_N" from="N_1_2" to="N_2_2" type="grid_street"/>
    <edge id="E_V_2_2_S" from="N_2_2" to="N_1_2" type="grid_street"/>
    <edge id="E_V_2_2_N" from="N_2_2" to="N_3_2" type="grid_street"/>
    <edge id="E_V_3_2_S" from="N_3_2" to="N_2_2" type="grid_street"/>
    <edge id="E_V_0_3_N" from="N_0_3" to="N_1_3" type="grid_street"/>
    <edge id="E_V_1_3_S" from="N_1_3" to="N_0_3" type="grid_street"/>
    <edge id="E_V_1_3_N" from="N_1_3" to="N_2_3" type="grid_street"/>
    <edge id="E_V_2_3_S" from="N_2_3" to="N_1_3" type="grid_street"/>
    <edge id="E_V_2_3_N" from="N_2_3" to="N_3_3" type="grid_street"/>
    <edge id="E_V_3_3_S" from="N_3_3" to="N_2_3" type="grid_street"/>
</edges>